units(length='cm', time='s', quantity='mol', act_energy='cal/mol')

ideal_gas(name='gas',
          elements="C H N O Ar He F",
          species="""dmf25             dmf24             cc31m2cho
                     h34de2o           h35de2o           h245te2oh
                     pyran1m2h         p23de1o2m         dmf34
                     dmf25acar         dmf25bcar         dmf24bcar
                     dmf34acar         dmf25opb1         dmf25opb2
                     p2e4car           dmf252j           dmf242j
                     dmf244j           dmf25ch2          h45de2o3j
                     h35de2o1j         che21o4j          cpropc3h4-a
                     che21o5j          h25de1o1j         h13de1o6j
                     chde241o          chde251o          p14de1j
                     dmf252h3j         h4e2o3j           h5e2o4j
                     dmf253h2j         h4e2o5j           h4e2o1j
                     dmf253j           h34de2o4j         p1e3y1o
                     dmf252oj          mf25cho           mf25cjo
                     mf2j5cho          h34de26o          h34de21o
                     p4y2o             o*ccj*o           hmf5oj
                     dcho25f           dchof2j           h34de126o
                     f2cho5j           m2e5f             hpt45de3o
                     hpt34de2o         m2je5f            m25jef-a
                     hpt56de3o4j       hpt46de3o2j       che21o4j6m
                     chde241o6m        m2e5jf-p          hpt45de2o3j
                     hpt35de2o1j       che21o4j5m        e25chof
                     e25cjof           e2jf5cho-a        e2f5j
                     hm25efoj          e2f               h45de3o
                     h23de1o           e2f2j-a           e2f2j-p
                     m2v5f             hpt346te2o        hpt145te3o
                     v2f               h145te3o          h235te1o
                     mf25ch2ooj        dmf252oh3j        mf25oh
                     p23de1o1oh        p34de2o5oh        c#ccjoh
                     h3e2o5oh5j        h25o3j            h3e25o
                     h3e25o1j          h3e15o1j          p3e2o
                     p3e25o5j          tmf2253j          h4e2o3j5m
                     h5e2o4j5m         mf2               mf2acar2
                     p23de1o-c         p23de1o-t         p34de2o-c
                     p34de2o-t         mf22j             p34de1o2j-c1
                     p34de1o2j-c2      p14de1o3j-c1      p14de1o3j-rc
                     p24de1o1j-c1      cpe31o2j          mf23j
                     p23de1o4j         mf24j             p34de2o5j
                     mf25j             p13de1o4j         mf22oj
                     f2cho             p23de15o          f2cjo
                     mf25oj            mf22h             p3e1o2j-c1
                     p3e1o2j-c2        p3e1o2j-t1        p15de1oh3j-c1
                     cpe24j5oh         p2e1o1j-c1        p4e1o3j-c1
                     p4e1o3j-c2        mf23h22j          p4e2o5j-c1
                     p4e2o1j-c2        mf24h25j          p3e1o4j-c1
                     p3e1o1j-c2        mf25h24j          p4e2o3j-c1
                     p4e2o3j-c2        p3e2o1j-c1        p3e2o1j-c2
                     c-c31o2c2h4       p3e1o1j-c1        mf22oh3j
                     f2oh              f2oj              b23de1o4oh
                     chcch2oh          p3e1o4oh2j        p14o3j
                     b2e14o1j          mf25oh4j          p4e2o5oh3j
                     p25o4j            p23de             b12de3m
                     p12de             lc6h6             p2y
                     p2y4j             c4h6-1            chcchch3
                     chcch2ch2         p1y4e             b13de2m
                     b13de2mj          b1e2m4j           b1e2m3j
                     b1e3m3j           b1e3mj            b1e2m3oj
                     b2e2m1oj          b1e3m3oj          b2e3m1oj
                     ic4h7-v           p13de1j           p1y
                     chde241obirad     bcyc-3.1.0-h3e6o  h135te1o
                     ch2chchco         ch2chch2cho       ch2ch2chco
                     ch2chch2co        mvk               mjvk
                     mvjk-p            mvjk-s            p134te1o
                     b3e2oj            c#ccjcc           c#ccho
                     p4e1o2j           evk               ejvk-p
                     ejvk-sa           evjk-p            evjk-s
                     furan             f2j               f3j
                     furop1            furop2            c4h5o-2
                     c4h5o-3           f23h              f25h
                     c5h8o             c5h6o             thf-2j
                     thf-3j            thf               chchchco
                     chcchco           chcchcho          ch2chco
                     chcch2cho         chchcho           c6h5ch3
                     c6h5ch2           c6h6              c6h5
                     c5h5              c5h6              c6h5o
                     c6h5oh            c6h4ch3           oc6h4ch3
                     hoc6h4ch3         c6h5ch2oo         bzcooh
                     c6h5ch2o          c6h5ch2oh         hoc6h4ch2
                     c6h5cho           c6h5co            c6h5c2h5
                     o-c6h4o2          c14h14            c14h13
                     c14h12            c14h11            c14h13oo
                     c14h13o           c14h13ooh         c14h12ooh
                     c14h12o2h-1o2     c14h11o-1o2h      hoc6h4ch2oo
                     hoc6h4ch2o        hoc6h4ch2ooh      hoc6h4cho
                     hoc6h4co          c6h5choh          c6h5chch3
                     c6h5ch2ch2        c6h5c2h3          c6h5cch2
                     c6h5chch          c6h5oo            c6h5ooh
                     c6h4oh            oc6h4oh           c5h4oh
                     o-oc6h5oj         p-c6h4o2          p-oc6h5oj
                     c5h4o             c5h5o             p-c6h3o2
                     c#cc*ccj          c5h6-l            c5h5oh
                     cj*cc*cc*o        c5h3o             cj*cc*o
                     c*ccjc*c          c*ccjc*coh        c5h7
                     c*cc*ccoh         oc5h7o            oc4h5o
                     o2cchooj          c*cc*ccj          p13de
                     oc4h6o            hoco              hoc*cc*o
                     hoc*ccj*o         c6h2              c6h3
                     c-c6h4            l-c6h4            h
                     h2                o                 o2
                     oh                oh*               h2o
                     n2                ho2               h2o2
                     ar                co                co2
                     ch2o              hco               ho2cho
                     hcoh              o2cho             hocho
                     ocho              hoch2o2h          hoch2o2
                     och2o2h           hoch2o            ch3oh
                     ch2oh             ch3o              ch3o2h
                     ch3o2             ch4               ch3
                     ch2               ch2(s)            c
                     ch                ch*               c2h6
                     c2h5              c2h4              c2h3
                     c2h2              c2h               ch3cho
                     c2h3oh            c2h2oh            ch3co
                     ch2cho            o2ch2cho          ho2ch2co
                     ch2co             hcco              hccoh
                     ch3co3h           ch3co3            ch3co2
                     c2h5oh            c2h5o             pc2h4oh
                     sc2h4oh           o2c2h4oh          c2h5o2h
                     c2h5o2            c2h4o2h           c2h4o1-2
                     c2h3o1-2          ch3coch3          ch3coch2
                     ch3coch2o2        c3ket21           c2h3cho
                     c2h3co            c2h5cho           c2h5co
                     ch3och3           ch3och2           ch3och2o2
                     ch2och2o2h        ch3och2o2h        ch3och2o
                     o2ch2och2o2h      ho2ch2ocho        och2ocho
                     hoch2oco          ch3ocho           ch3oco
                     ch2ocho           he                c3h8
                     ic3h7             nc3h7             c3h6
                     c3h5-a            c3h5-s            c3h5-t
                     c3h4-p            c3h4-a            c3h3
                     c3h5o             c3h6ooh1-2        c3h6ooh1-3
                     c3h6ooh2-1        c3h6ooh1-2o2      c3h6ooh1-3o2
                     c3h6ooh2-1o2      c3h6ooh2-2        nc3h7o2h
                     ic3h7o2h          nc3h7o2           ic3h7o2
                     nc3h7o            ic3h7o            c3h6o1-2
                     c3h6o1-3          c3ket12           c3ket13
                     c3h51-2,3ooh      c3h52-1,3ooh      c3h6oh
                     hoc3h6o2          ch3chco           ac3h5ooh
                     c2h3ooh           cc3h4             h2cc
                     c4h10             c4h8-1            c4h8-2
                     pc4h9             sc4h9             c4h71-1
                     c4h71-2           c4h71-3           c4h71-4
                     c4h72-2           c4h6              pc4h9o2h
                     sc4h9o2h          pc4h9o2           sc4h9o2
                     pc4h9o            sc4h9o            c4h7o
                     c4h8o1-2          c4h8o1-3          c4h8o1-4
                     c4h8o2-3          pc4h8oh           sc4h8oh
                     c4h8oh-1o2        c4h8oh-2o2        c4h8ooh1-1
                     c4h8ooh1-2        c4h8ooh1-3        c4h8ooh1-4
                     c4h8ooh2-1        c4h8ooh2-2        c4h8ooh2-3
                     c4h8ooh2-4        c4h8ooh1-2o2      c4h8ooh1-3o2
                     c4h8ooh1-4o2      c4h8ooh2-1o2      c4h8ooh2-3o2
                     c4h8ooh2-4o2      nc4ket12          nc4ket13
                     nc4ket14          nc4ket21          nc4ket23
                     nc4ket24          c2h5coch3         c2h5coch2
                     ch2ch2coch3       ch3chcoch3        c2h3coch3
                     ch3choococh3      ch2choohcoch3     nc3h7cho
                     nc3h7co           c3h6cho-1         c3h6cho-2
                     c3h6cho-3         c2h5chco          sc3h5cho
                     sc3h5co           ch2ch2cho         ic4h10
                     ic4h9             tc4h9             ic4h8
                     ic4h7             tc4h9o2           ic4h9o2
                     tc4h8o2h-i        ic4h8o2h-i        ic4h8o2h-t
                     ic4h8o            cc4h8o            ic4h9o
                     tc4h9o            ic4h9o2h          tc4h9o2h
                     ic4h7o            ic4h8oh           io2c4h8oh
                     ic3h7cho          tc3h6cho          ic3h7co
                     ic3h6cho          tc4h8ooh-io2      ic4h8ooh-io2
                     ic4h8ooh-to2      ic4ketii          ic4ketit
                     ic4h7oh           ic4h6oh           ic3h5cho
                     ic3h5co           tc3h6ocho         ic3h6co
                     ic4h7ooh          tc3h6ohcho        tc3h6oh
                     ic3h5oh           tc3h6o2cho        tc3h6o2hco
                     ic3h5o2hcho       ch2cch2oh         tc4h8cho
                     o2c4h8cho         o2hc4h8co         c3h5oh
                     tic4h7q2-i        iic4h7q2-t        iic4h7q2-i
                     ch2o2h            c4h4              c4h3-i
                     c4h3-n            c4h612            c4h2
                     c4h5-i            c4h5-n            ch3chchco
                     ch2chchcho        c4h6o25           c2h3choch2
                     c4h5-2            c4h6-2            c4h6o23
                     ch3chchcho        h2c4o""",
          reactions='all',
          transport='Mix',
          initial_state=state(temperature=300.0, pressure=OneAtm))

#-------------------------------------------------------------------------------
# Species data
#-------------------------------------------------------------------------------

species(name='dmf25',
        atoms='C:6 H:8 O:1',
        thermo=(NASA([300.00, 1401.00],
                     [-1.90238394E+00,  6.39059092E-02, -4.46836532E-05,
                       1.58691282E-08, -2.24105387E-12, -1.70068844E+04,
                       3.43503878E+01]),
                NASA([1401.00, 5000.00],
                     [ 1.62040470E+01,  2.13113811E-02, -7.05230339E-06,
                       1.07130233E-09, -6.12345990E-14, -2.31662780E+04,
                      -6.26215216E+01])),
        transport=gas_transport(geom='nonlinear',
                                diam=5.3,
                                well_depth=501.0,
                                rot_relax=1.0),
        note='13/11/12BSIRJ')

species(name='dmf24',
        atoms='C:6 H:8 O:1',
        thermo=(NASA([300.00, 1400.00],
                     [-1.74935652E+00,  6.32700816E-02, -4.38243812E-05,
                       1.53807879E-08, -2.14115852E-12, -1.57727446E+04,
                       3.43385761E+01]),
                NASA([1400.00, 5000.00],
                     [ 1.61992384E+01,  2.13022858E-02, -7.04701218E-06,
                       1.07030899E-09, -6.11716912E-14, -2.19049207E+04,
                      -6.18803376E+01])),
        transport=gas_transport(geom='nonlinear',
                                diam=5.3,
                                well_depth=501.0,
                                rot_relax=1.0),
        note='13/11/12BSIRJ')

species(name='cc31m2cho',
        atoms='C:6 H:8 O:1',
        thermo=(NASA([300.00, 1383.00],
                     [ 7.68963934E-01,  5.65587038E-02, -3.39060906E-05,
                       9.02252347E-09, -7.10649041E-13,  4.68539206E+03,
                       2.63847870E+01]),
                NASA([1383.00, 5000.00],
                     [ 1.79447518E+01,  2.00693289E-02, -6.68130048E-06,
                       1.01976250E-09, -5.85031677E-14, -1.51838597E+03,
                      -6.69421787E+01])),
        transport=gas_transport(geom='nonlinear',
                                diam=6.098,
                                well_depth=380.96,
                                rot_relax=1.0),
        note='13/11/12BSIRJ')

species(name='h34de2o',
        atoms='C:6 H:8 O:1',
        thermo=(NASA([300.00, 1676.00],
                     [ 1.40161032E+00,  5.41994918E-02, -3.11113597E-05,
                       8.00553886E-09, -6.65713160E-13, -2.86948921E+03,
                       2.40225540E+01]),
                NASA([1676.00, 5000.00],
                     [ 1.58881038E+01,  2.29905167E-02, -8.01404583E-06,
                       1.26697337E-09, -7.46245866E-14, -7.83333653E+03,
                      -5.42524947E+01])),
        transport=gas_transport(geom='nonlinear',
                                diam=6.086,
                                well_depth=388.603,
                                rot_relax=1.0),
        note='13/11/12BSIRJ')

species(name='h35de2o',
        atoms='C:6 H:8 O:1',
        thermo=(NASA([300.00, 1388.00],
                     [-7.88521411E-01,  6.30781882E-02, -4.21452875E-05,
                       1.35028727E-08, -1.60975779E-12, -7.35547015E+03,
                       3.25864561E+01]),
                NASA([1388.00, 5000.00],
                     [ 1.85183158E+01,  1.97680503E-02, -6.61796575E-06,
                       1.01406846E-09, -5.83402863E-14, -1.41113156E+04,
                      -7.15261505E+01])),
        transport=gas_transport(geom='nonlinear',
                                diam=6.172,
                                well_depth=375.653,
                                rot_relax=1.0),
        note='13/11/12BSIRJ')

species(name='h245te2oh',
        atoms='C:6 H:8 O:1',
        thermo=(NASA([300.00, 1397.00],
                     [-1.70616702E-01,  6.84486151E-02, -5.52254063E-05,
                       2.30342560E-08, -3.86500390E-12,  3.64299720E+03,
                       2.72114029E+01]),
                NASA([1397.00, 5000.00],
                     [ 1.92231383E+01,  1.88181664E-02, -6.21189838E-06,
                       9.42453517E-10, -5.38350666E-14, -2.58395282E+03,
                      -7.52855925E+01])),
        transport=gas_transport(geom='nonlinear',
                                diam=6.179,
                                well_depth=339.202,
                                rot_relax=1.0),
        note='13/11/12BSIRJ')

species(name='pyran1m2h',
        atoms='C:6 H:8 O:1',
        thermo=(NASA([300.00, 1399.00],
                     [-3.53599822E+00,  7.01262342E-02, -5.19683335E-05,
                       1.98080067E-08, -3.05351387E-12, -7.73078144E+03,
                       4.22450416E+01]),
                NASA([1399.00, 5000.00],
                     [ 1.65341236E+01,  2.17058227E-02, -7.32789076E-06,
                       1.12811994E-09, -6.50793503E-14, -1.44824142E+04,
                      -6.48907676E+01])),
        transport=gas_transport(geom='nonlinear',
                                diam=5.3,
                                well_depth=501.0,
                                rot_relax=1.0),
        note='13/11/12BSIRJ')

species(name='p23de1o2m',
        atoms='C:6 H:8 O:1',
        thermo=(NASA([300.00, 2009.00],
                     [ 3.22314846E+00,  4.82285378E-02, -2.60070520E-05,
                       6.24365374E-09, -4.53234825E-13, -8.23530216E+02,
                       1.56656243E+01]),
                NASA([2009.00, 5000.00],
                     [ 1.51049196E+01,  2.30733588E-02, -7.90551333E-06,
                       1.23498113E-09, -7.21272630E-14, -4.95190827E+03,
                      -4.87072618E+01])),
        transport=gas_transport(geom='nonlinear',
                                diam=5.56,
                                well_depth=336.119,
                                rot_relax=1.0),
        note='13/11/12BSIRJ')

species(name='dmf34',
        atoms='C:6 H:8 O:1',
        thermo=(NASA([300.00, 1399.00],
                     [-1.65687616E+00,  6.27105663E-02, -4.29646779E-05,
                       1.48565422E-08, -2.02844143E-12, -1.45742104E+04,
                       3.32400979E+01]),
                NASA([1399.00, 5000.00],
                     [ 1.61569861E+01,  2.13383191E-02, -7.05963520E-06,
                       1.07231159E-09, -6.12899666E-14, -2.06875488E+04,
                      -6.23546454E+01])),
        transport=gas_transport(geom='nonlinear',
                                diam=5.3,
                                well_depth=501.0,
                                rot_relax=1.0),
        note='13/11/12BSIRJ')

species(name='dmf25acar',
        atoms='C:6 H:8 O:1',
        thermo=(NASA([300.00, 1402.00],
                     [-2.04135553E+00,  6.62659873E-02, -4.85547738E-05,
                       1.82497918E-08, -2.75281151E-12,  1.35582828E+04,
                       3.69056200E+01]),
                NASA([1402.00, 5000.00],
                     [ 1.67092230E+01,  2.08970481E-02, -6.91259348E-06,
                       1.04982583E-09, -5.99973855E-14,  7.30264533E+03,
                      -6.30746028E+01])),
        transport=gas_transport(geom='nonlinear',
                                diam=5.3,
                                well_depth=501.0,
                                rot_relax=1.0),
        note='13/11/12BSIRJ')

species(name='dmf25bcar',
        atoms='C:6 H:8 O:1',
        thermo=(NASA([300.00, 1402.00],
                     [-1.48671236E+00,  6.39918050E-02, -4.53736960E-05,
                       1.63707150E-08, -2.35330416E-12,  1.30164723E+04,
                       3.39959946E+01]),
                NASA([1402.00, 5000.00],
                     [ 1.66827325E+01,  2.09048767E-02, -6.91251941E-06,
                       1.04956043E-09, -5.99727120E-14,  6.87290229E+03,
                      -6.31866173E+01])),
        transport=gas_transport(geom='nonlinear',
                                diam=5.3,
                                well_depth=501.0,
                                rot_relax=1.0),
        note='13/11/12BSIRJ')

species(name='dmf24bcar',
        atoms='C:6 H:8 O:1',
        thermo=(NASA([300.00, 1402.00],
                     [-1.96466207E+00,  6.76552387E-02, -5.13450788E-05,
                       2.01422914E-08, -3.18543775E-12,  1.56588517E+04,
                       3.60116201E+01]),
                NASA([1402.00, 5000.00],
                     [ 1.70377325E+01,  2.06091377E-02, -6.81125049E-06,
                       1.03378985E-09, -5.90546732E-14,  9.41598648E+03,
                      -6.49493294E+01])),
        transport=gas_transport(geom='nonlinear',
                                diam=5.3,
                                well_depth=501.0,
                                rot_relax=1.0),
        note='13/11/12BSIRJ')

species(name='dmf34acar',
        atoms='C:6 H:8 O:1',
        thermo=(NASA([300.00, 1403.00],
                     [-2.10540182E+00,  6.87907766E-02, -5.32534544E-05,
                       2.13662679E-08, -3.45739635E-12,  1.50106594E+04,
                       3.62475201E+01]),
                NASA([1403.00, 5000.00],
                     [ 1.71200051E+01,  2.05390229E-02, -6.78641887E-06,
                       1.02980163E-09, -5.88165480E-14,  8.75542519E+03,
                      -6.56738506E+01])),
        transport=gas_transport(geom='nonlinear',
                                diam=5.3,
                                well_depth=501.0,
                                rot_relax=1.0),
        note='13/11/12BSIRJ')

species(name='dmf25opb1',
        atoms='C:6 H:8 O:1',
        thermo=(NASA([300.00, 1477.00],
                     [ 4.33936501E+00,  4.32059577E-02, -1.54363820E-05,
                      -1.76042740E-09,  1.55111091E-12,  2.70709245E+04,
                       1.19604169E+01]),
                NASA([1477.00, 5000.00],
                     [ 1.81400589E+01,  2.01148324E-02, -6.74234044E-06,
                       1.03390655E-09, -5.95103239E-14,  2.14761868E+04,
                      -6.52163698E+01])),
        transport=gas_transport(geom='nonlinear',
                                diam=5.3,
                                well_depth=501.0,
                                rot_relax=1.0),
        note='13/11/12BSIRJ')

species(name='dmf25opb2',
        atoms='C:6 H:8 O:1',
        thermo=(NASA([300.00, 1398.00],
                     [ 2.25572085E-02,  6.11550186E-02, -4.33836357E-05,
                       1.58770586E-08, -2.34451485E-12,  2.30936745E+04,
                       2.97820185E+01]),
                NASA([1398.00, 5000.00],
                     [ 1.70793431E+01,  2.05820954E-02, -6.80332617E-06,
                       1.03266406E-09, -5.89924960E-14,  1.73149872E+04,
                      -6.14451732E+01])),
        transport=gas_transport(geom='nonlinear',
                                diam=5.3,
                                well_depth=501.0,
                                rot_relax=1.0),
        note='13/11/12BSIRJ')

species(name='p2e4car',
        atoms='C:5 H:8',
        thermo=(NASA([300.00, 1394.00],
                     [-7.28733316E-01,  5.20332676E-02, -3.76241318E-05,
                       1.47531065E-08, -2.40457670E-12,  4.01817673E+04,
                       3.11512736E+01]),
                NASA([1394.00, 5000.00],
                     [ 1.30054221E+01,  1.89015697E-02, -6.38195085E-06,
                       1.06187838E-09, -6.66394707E-14,  3.54810820E+04,
                      -4.22974842E+01])),
        transport=gas_transport(geom='nonlinear',
                                diam=5.612,
                                well_depth=339.106,
                                rot_relax=1.0),
        note='13/11/12BSIRJ')

species(name='dmf252j',
        atoms='C:6 H:7 O:1',
        thermo=(NASA([300.00, 1403.00],
                     [-2.89529722E+00,  7.08214892E-02, -5.93091177E-05,
                       2.56216831E-08, -4.43647742E-12, -4.50274487E+02,
                       3.86649401E+01]),
                NASA([1403.00, 5000.00],
                     [ 1.69753960E+01,  1.86765756E-02, -6.25961515E-06,
                       9.58949531E-10, -5.51313528E-14, -6.71654082E+03,
                      -6.59181824E+01])),
        transport=gas_transport(geom='nonlinear',
                                diam=5.3,
                                well_depth=501.0,
                                rot_relax=1.0),
        note='13/11/12BSIRJ')

species(name='dmf242j',
        atoms='C:6 H:7 O:1',
        thermo=(NASA([300.00, 1403.00],
                     [-3.22939533E+00,  7.17200209E-02, -6.03496248E-05,
                       2.61738848E-08, -4.54625564E-12,  1.12736712E+03,
                       4.04428390E+01]),
                NASA([1403.00, 5000.00],
                     [ 1.69090698E+01,  1.87262495E-02, -6.27561986E-06,
                       9.61356372E-10, -5.52686052E-14, -5.20888937E+03,
                      -6.54981157E+01])),
        transport=gas_transport(geom='nonlinear',
                                diam=5.3,
                                well_depth=501.0,
                                rot_relax=1.0),
        note='13/11/12BSIRJ')

species(name='dmf244j',
        atoms='C:6 H:7 O:1',
        thermo=(NASA([300.00, 1403.00],
                     [-2.84797317E+00,  7.05847666E-02, -5.90778127E-05,
                       2.55467170E-08, -4.43146210E-12,  3.01681139E+03,
                       3.80033131E+01]),
                NASA([1403.00, 5000.00],
                     [ 1.69096217E+01,  1.87328063E-02, -6.27902618E-06,
                       9.61975583E-10, -5.53072231E-14, -3.21820870E+03,
                      -6.59912825E+01])),
        transport=gas_transport(geom='nonlinear',
                                diam=5.3,
                                well_depth=501.0,
                                rot_relax=1.0),
        note='13/11/12BSIRJ')

species(name='dmf25ch2',
        atoms='C:6 H:6 O:1',
        thermo=(NASA([300.00, 1402.00],
                     [-4.86489043E+00,  7.72055102E-02, -7.13991453E-05,
                       3.35044167E-08, -6.20534634E-12,  3.26687206E+03,
                       4.53595900E+01]),
                NASA([1402.00, 5000.00],
                     [ 1.67787664E+01,  1.68988464E-02, -5.77350191E-06,
                       8.95824160E-10, -5.19570001E-14, -3.26089571E+03,
                      -6.73995095E+01])),
        transport=gas_transport(geom='nonlinear',
                                diam=5.3,
                                well_depth=501.0,
                                rot_relax=1.0),
        note='13/11/12BSIRJ')

species(name='h45de2o3j',
        atoms='C:6 H:7 O:1',
        thermo=(NASA([300.00, 1398.00],
                     [-3.16825569E-01,  6.37172307E-02, -5.17905681E-05,
                       2.21203081E-08, -3.83430620E-12,  1.42357178E+04,
                       3.01257501E+01]),
                NASA([1398.00, 5000.00],
                     [ 1.71497294E+01,  1.85687140E-02, -6.22995744E-06,
                       9.55000117E-10, -5.49255725E-14,  8.61719250E+03,
                      -6.21179393E+01])),
        transport=gas_transport(geom='nonlinear',
                                diam=6.103,
                                well_depth=372.242,
                                rot_relax=1.0),
        note='13/11/12BSIRJ')

species(name='h35de2o1j',
        atoms='C:6 H:7 O:1',
        thermo=(NASA([300.00, 1399.00],
                     [-1.95799446E+00,  7.20918397E-02, -6.17998864E-05,
                       2.69516363E-08, -4.67984090E-12,  1.48347071E+04,
                       3.68197843E+01]),
                NASA([1399.00, 5000.00],
                     [ 1.89730609E+01,  1.70059944E-02, -5.69601154E-06,
                       8.72815599E-10, -5.02063670E-14,  8.26525578E+03,
                      -7.32640301E+01])),
        transport=gas_transport(geom='nonlinear',
                                diam=6.103,
                                well_depth=372.242,
                                rot_relax=1.0),
        note='13/11/12BSIRJ')

species(name='che21o4j',
        atoms='C:6 H:7 O:1',
        thermo=(NASA([300.00, 1398.00],
                     [-3.97305191E+00,  7.10706977E-02, -5.58952869E-05,
                       2.25344630E-08, -3.67245836E-12, -1.02000032E+03,
                       4.34678884E+01]),
                NASA([1398.00, 5000.00],
                     [ 1.68852957E+01,  1.95315762E-02, -6.72178196E-06,
                       1.04813267E-09, -6.10024896E-14, -7.93989847E+03,
                      -6.74856051E+01])),
        transport=gas_transport(geom='nonlinear',
                                diam=5.5,
                                well_depth=450.0,
                                rot_relax=1.0),
        note='13/11/12BSIRJ')

species(name='cpropc3h4-a',
        atoms='C:6 H:7 O:1',
        thermo=(NASA([300.00, 1406.00],
                     [-2.07895685E+00,  7.41393794E-02, -6.77357193E-05,
                       3.17858309E-08, -5.89777462E-12,  2.28252430E+04,
                       3.67949054E+01]),
                NASA([1406.00, 5000.00],
                     [ 1.78414296E+01,  1.79565085E-02, -6.00981876E-06,
                       9.19437063E-10, -5.27980397E-14,  1.68942284E+04,
                      -6.67293312E+01])),
        transport=gas_transport(geom='nonlinear',
                                diam=6.073,
                                well_depth=407.774,
                                rot_relax=1.0),
        note='BSIRJ')

species(name='che21o5j',
        atoms='C:6 H:7 O:1',
        thermo=(NASA([300.00, 1396.00],