"""

  Andrae et al., Toluene reference fuels, C&F 2008
  137 species, 633 reactions


"""

units(length='cm', time='s', quantity='mol', act_energy='cal/mol')

ideal_gas(name='gas',
          elements="O H C N Ar",
          species="""C6H5CH3          C6H5CH2          OC6H4CH3
                     HOC6H4CH3        C6H4CH3          C6H5CH2OO
                     C6H5CH2OOH       C6H5CH2O         C6H5CHO
                     BIBENZYL         C6H5CO           C6H5CHCH2
                     C6H5C2H4         C6H5C2H5         C6H5CH2OH
                     CO               CO2              C6H6
                     C6H5             C6H4             C6H5O
                     C6H5OH           OC6H4O           oOC6H4O
                     OC6H3O           C6H3O3           C5H7
                     C5H6             C5H5             C5H5O
                     C5H5OH           C5H4O            C5H4OH
                     C5H4             C5H3O            C5H3
                     CH2CHCHCHCH3     CH2CHC.HCHCH2    CH2CHCHCHC.H2
                     CHCCHCHC.H2      CH2CHC.HCHCHOH   CH2CHCHCHCH2OH
                     CHOCH2CH2C.HCHO  CH2CHCHCH2       CH2CHC.CH2
                     CH2CHCHC.H       CH2CHCCH         HCCHCCH
                     H2CCCCH          C4H2             C4H
                     CHOCH2CH2CHO     CHOCH2CH2C.O     CH2CHC.HCHO
                     CH2CHCHCO        C.HCHCHCO        CH2C.CHCO
                     CHCCHCO          CHCC.CO          H2C4O
                     CH2CHCH3         CH2CHC.H2        CH2C.CH3
                     C.HCHCH3         H2CCCH2          H3CCCH
                     H2CCCH           C3H2             CH2CHCHO
                     CHOCHCHOH        C.HCHCHO         CH2CHC.O
                     C2H6             C2H5             C2H4
                     C2H3             C2H2             C2H
                     C2               CH3HCO           CH3CO
                     CH2HCO           C2H2OH           OCHCHO
                     CH2CO            HCCOH            HCCO
                     C2O              O2CCHOO.         C2H5CHO
                     C2H5CO           CH4              CH3
                     CH2              CH2(S)           CH
                     C                CH3OH            CH3O
                     CH2OH            CH2O             HCO
                     HCOO             H                O
                     OH               H2               O2
                     HO2              H2O              H2O2
                     NO               HNO              HONO
                     NO2              N2               C7H16
                     C7H15-1          C7H15-2          C7H15O2
                     C7H14O2H         O2C7H14O2H       HO2C7H13O2H
                     OC7H13O2H        OC7H13O          C5H11
                     I*C3H7           PC4H9            C8H18
                     AC8H17           AC8H17OO         AC8H16OOH-B
                     AC8H16OOH-BO2    OC8H15OOH        OC8H15O
                     JC8H16           IC4H8            AR""",
          reactions='all',
          transport='Mix',
          initial_state=state(temperature=300.0, pressure=OneAtm))

#-------------------------------------------------------------------------------
# Species data
#-------------------------------------------------------------------------------

species(name='C6H5CH3',
        atoms='C:7 H:8',
        thermo=(NASA([300.00, 1000.00],
                     [-2.53688240E+00,  5.28988690E-02,  1.40385150E-06,
                      -4.07623230E-08,  2.03775190E-11,  4.47784770E+03,
                       3.74151150E+01]),
                NASA([1000.00, 5000.00],
                     [ 1.39577250E+01,  2.46166070E-02, -8.37953580E-06,
                       1.25371650E-09, -6.76755200E-14, -1.02950660E+03,
                      -5.22457280E+01])),
        transport=gas_transport(geom='nonlinear',
                                diam=5.68,
                                well_depth=495.3,
                                dipole=0.375,
                                polar=12.3,
                                rot_relax=1.0),
        note='T9/81')

species(name='C6H5CH2',
        atoms='C:7 H:7',
        thermo=(NASA([300.00, 1380.00],
                     [-3.13104309E+00,  6.45512922E-02, -4.39082794E-05,
                       1.46756825E-08, -1.95214937E-12,  2.26869723E+04,
                       3.96945254E+01]),
                NASA([1380.00, 5000.00],
                     [ 1.74066429E+01,  1.94934914E-02, -6.89552346E-06,
                       1.09498206E-09, -6.45370306E-14,  1.52488939E+04,
                      -7.16678643E+01])),
        transport=gas_transport(geom='nonlinear',
                                diam=5.68,
                                well_depth=495.3,
                                dipole=0.375,
                                polar=12.3,
                                rot_relax=1.0),
        note='5/11/93THERM')

species(name='OC6H4CH3',
        atoms='C:7 H:7 O:1',
        thermo=(NASA([300.00, 1398.00],
                     [-3.82920147E+00,  7.73376217E-02, -6.15929083E-05,
                       2.43728641E-08, -3.80779615E-12,  2.89377185E+01,
                       4.06647799E+01]),
                NASA([1398.00, 5000.00],
                     [ 2.00333477E+01,  1.83142467E-02, -6.17265091E-06,
                       9.50353551E-10, -5.48634044E-14, -7.76864165E+03,
                      -8.60606102E+01])),
        transport=gas_transport(geom='nonlinear',
                                diam=5.64,
                                well_depth=621.1,
                                dipole=0.4,
                                polar=12.3,
                                rot_relax=1.0),
        note='AVGCRESOL')

species(name='HOC6H4CH3',
        atoms='C:7 H:8 O:1',
        thermo=(NASA([300.00, 1400.00],
                     [-4.17663565E+00,  8.29479164E-02, -6.92618926E-05,
                       2.97047387E-08, -5.12027914E-12, -1.73715284E+04,
                       4.43681107E+01]),
                NASA([1400.00, 5000.00],
                     [ 1.97311724E+01,  2.12245074E-02, -7.27602659E-06,
                       1.13158989E-09, -6.57395287E-14, -2.50451776E+04,
                      -8.18783394E+01])),
        transport=gas_transport(geom='nonlinear',
                                diam=5.64,
                                well_depth=621.1,
                                dipole=0.5,
                                polar=12.3,
                                rot_relax=1.0),
        note='AVGCRESOL')

species(name='C6H4CH3',
        atoms='C:7 H:7',
        thermo=(NASA([300.00, 1000.00],
                     [-2.98827000E+00,  6.21039310E-02, -3.90118950E-05,
                       9.28257830E-09,  0.00000000E+00,  3.43676800E+04,
                       4.12025200E+01]),
                NASA([1000.00, 5000.00],
                     [ 9.89521100E+00,  2.81997140E-02, -9.85390310E-06,
                       1.14532240E-09,  0.00000000E+00,  3.07512908E+04,
                      -2.57557742E+01])),
        transport=gas_transport(geom='nonlinear',
                                diam=5.68,
                                well_depth=495.3,
                                dipole=0.5,
                                polar=12.3,
                                rot_relax=1.0),
        note='RANZI')

species(name='C6H5CH2OO',
        atoms='C:7 H:7 O:2',
        thermo=(NASA([300.00, 1389.00],
                     [-3.77863659E+00,  8.29484718E-02, -6.64288143E-05,
                       2.69504875E-08, -4.41844689E-12,  1.25603231E+04,
                       4.73269747E+01]),
                NASA([1389.00, 5000.00],
                     [ 2.18946260E+01,  2.02701494E-02, -7.14525361E-06,
                       1.13208570E-09, -6.66220534E-14,  3.93272947E+03,
                      -8.95685129E+01])),
        transport=gas_transport(geom='nonlinear',
                                diam=5.53,
                                well_depth=622.4,
                                dipole=3.29,
                                polar=13.0,
                                rot_relax=1.0),
        note='3/4/94THERM')

species(name='C6H5CH2OOH',
        atoms='C:7 H:8 O:2',
        thermo=(NASA([300.00, 1390.00],
                     [-3.39515159E+00,  8.45306884E-02, -6.70634097E-05,
                       2.72113250E-08, -4.48289693E-12, -5.78730853E+03,
                       4.57078979E+01]),
                NASA([1390.00, 5000.00],
                     [ 2.21951256E+01,  2.19901041E-02, -7.70452728E-06,
                       1.21574282E-09, -7.13427270E-14, -1.43966742E+04,
                      -9.07483698E+01])),
        transport=gas_transport(geom='nonlinear',
                                diam=5.53,
                                well_depth=622.4,
                                dipole=2.39,
                                polar=13.0,
                                rot_relax=1.0),
        note='3/4/94THERM')

species(name='C6H5CH2O',
        atoms='C:7 H:7 O:1',
        thermo=(NASA([300.00, 1392.00],
                     [-4.77736690E+00,  7.51049308E-02, -5.68532831E-05,
                       2.18290029E-08, -3.38134298E-12,  1.26234438E+04,
                       5.10429366E+01]),
                NASA([1392.00, 5000.00],
                     [ 1.78843033E+01,  2.09011735E-02, -7.21832713E-06,
                       1.12839851E-09, -6.57955260E-14,  4.93182818E+03,
                      -7.01304667E+01])),
        transport=gas_transport(geom='nonlinear',
                                diam=5.53,
                                well_depth=622.4,
                                dipole=3.0,
                                polar=13.0,
                                rot_relax=1.0),
        note='4/14/94THERM')

species(name='C6H5CHO',
        atoms='C:7 H:6 O:1',
        thermo=(NASA([300.00, 1386.00],
                     [-2.37082285E+00,  6.28843128E-02, -4.26460754E-05,
                       1.39416083E-08, -1.74474949E-12, -6.11656186E+03,
                       3.85478773E+01]),
                NASA([1386.00, 5000.00],
                     [ 1.74024893E+01,  1.89508317E-02, -6.58694307E-06,
                       1.03413046E-09, -6.04793155E-14, -1.31418522E+04,
                      -6.83371315E+01])),
        transport=gas_transport(geom='nonlinear',
                                diam=5.53,
                                well_depth=622.4,
                                dipole=3.0,
                                polar=12.3,
                                rot_relax=1.0),
        note='5/16/90THERM')

species(name='BIBENZYL',
        atoms='C:14 H:14',
        thermo=(NASA([300.00, 1392.00],
                     [-1.05318902E+01,  1.48504587E-01, -1.15713218E-04,
                       4.52836955E-08, -7.06388895E-12,  1.47378885E+04,
                       7.80962493E+01]),
                NASA([1392.00, 5000.00],
                     [ 3.48131330E+01,  3.78396057E-02, -1.27934440E-05,
                       1.97366490E-09, -1.14091685E-13, -3.11362732E+02,
                      -1.63384186E+02])),
        transport=gas_transport(geom='nonlinear',
                                diam=6.64,
                                well_depth=783.8,
                                polar=17.0,
                                rot_relax=1.0))

species(name='C6H5CO',
        atoms='C:7 H:5 O:1',
        thermo=(NASA([300.00, 1392.00],
                     [-1.56729686E+00,  5.99817511E-02, -4.29153585E-05,
                       1.48666854E-08, -1.98938453E-12,  1.12873830E+04,
                       3.55490009E+01]),
                NASA([1392.00, 5000.00],
                     [ 1.75116258E+01,  1.62650511E-02, -5.65051892E-06,
                       8.86922680E-10, -5.18657990E-14,  4.67641545E+03,
                      -6.70531966E+01])),
        transport=gas_transport(geom='nonlinear',
                                diam=5.53,
                                well_depth=622.4,
                                dipole=2.0,
                                polar=12.3,
                                rot_relax=1.0),
        note='THERM')

species(name='C6H5CHCH2',
        atoms='C:8 H:8',
        thermo=(NASA([300.00, 1000.00],
                     [-4.72609100E+00,  8.11451000E-02, -5.87009600E-05,
                       1.43308700E-08,  2.02852700E-12,  1.60276300E+04,
                       4.66340700E+01]),
                NASA([1000.00, 5000.00],
                     [ 1.45713200E+01,  2.86018900E-02, -1.09459200E-05,
                       1.98666800E-09, -1.36510300E-13,  1.06025300E+04,
                      -5.33460500E+01])),
        transport=gas_transport(geom='nonlinear',
                                diam=6.0,
                                well_depth=546.2,
                                dipole=0.123,
                                polar=13.61,
                                rot_relax=1.0))

species(name='C6H5C2H4',
        atoms='C:8 H:9',
        thermo=(NASA([300.00, 1000.00],
                     [-5.44406200E+00,  9.02398700E-02, -7.84815900E-05,
                       3.71951400E-08, -7.75189900E-12,  2.59795200E+04,
                       5.10027000E+01]),
                NASA([1000.00, 3000.00],
                     [ 1.78127400E+01,  2.42523300E-02, -7.32580300E-06,
                       1.07811600E-09, -6.30329300E-14,  1.94893800E+04,
                      -6.91231500E+01])),
        transport=gas_transport(geom='nonlinear',
                                diam=6.0,
                                well_depth=546.2,
                                dipole=0.4,
                                polar=15.0,
                                rot_relax=1.0))

species(name='C6H5C2H5',
        atoms='C:8 H:10',
        thermo=(NASA([300.00, 1397.00],
                     [-5.93600077E+00,  8.94618416E-02, -6.81230510E-05,
                       2.66103734E-08, -4.21398102E-12,  1.94317497E+03,
                       5.33309542E+01]),
                NASA([1397.00, 5000.00],
                     [ 2.02816724E+01,  2.59464082E-02, -8.92667064E-06,
                       1.39161163E-09, -8.09786280E-14, -6.88695837E+03,
                      -8.65892579E+01])),
        transport=gas_transport(geom='nonlinear',
                                diam=5.96,
                                well_depth=523.6,
                                dipole=0.59,
                                polar=14.2,
                                rot_relax=1.0))

species(name='C6H5CH2OH',
        atoms='C:7 H:8 O:1',
        thermo=(NASA([300.00, 1396.00],
                     [-3.72475901E+00,  7.42375044E-02, -5.41481788E-05,
                       2.01178934E-08, -3.02199053E-12, -1.38224993E+04,
                       4.53342817E+01]),
                NASA([1396.00, 5000.00],
                     [ 1.81575155E+01,  2.26620146E-02, -7.79454113E-06,
                       1.21491074E-09, -7.06883434E-14, -2.13319736E+04,
                      -7.19512787E+01])),
        transport=gas_transport(geom='nonlinear',
                                diam=5.53,
                                well_depth=622.4,
                                dipole=1.7,
                                polar=15.0,
                                rot_relax=1.0),
        note='3/8/90')

species(name='CO',
        atoms='C:1 O:1',
        thermo=(NASA([300.00, 1000.00],
                     [ 3.26245200E+00,  1.51194100E-03, -3.88175500E-06,
                       5.58194400E-09, -2.47495100E-12, -1.43105400E+04,
                       4.84889700E+00]),
                NASA([1000.00, 5000.00],
                     [ 3.02507800E+00,  1.44268900E-03, -5.63082800E-07,
                       1.01858100E-10, -6.91095200E-15, -1.42683500E+04,
                       6.10821800E+00])),
        transport=gas_transport(geom='linear',
                                diam=3.65,
                                well_depth=98.1,
                                dipole=0.1098,
                                polar=1.95,
                                rot_relax=1.8),
        note='121286')

species(name='CO2',
        atoms='C:1 O:2',
        thermo=(NASA([300.00, 1000.00],
                     [ 2.27572500E+00,  9.92207200E-03, -1.04091100E-05,
                       6.86668700E-09, -2.11728000E-12, -4.83731400E+04,
                       1.01884900E+01]),
                NASA([1000.00, 5000.00],
                     [ 4.45362300E+00,  3.14016900E-03, -1.27841100E-06,
                       2.39399700E-10, -1.66903300E-14, -4.89669600E+04,
                      -9.55395900E-01])),
        transport=gas_transport(geom='linear',
                                diam=3.763,
                                well_depth=244.0,
                                polar=2.65,
                                rot_relax=2.1),
        note='121286')

species(name='C6H6',
        atoms='C:6 H:6',
        thermo=(NASA([300.00, 1000.00],
                     [-3.13801200E+00,  4.72310300E-02, -2.96220800E-06,
                      -3.26281900E-08,  1.71869200E-11,  8.89003100E+03,
                       3.65757300E+01]),
                NASA([1000.00, 5000.00],
                     [ 1.29107400E+01,  1.72329700E-02, -5.02421100E-06,
                       5.89349700E-10, -1.94752100E-14,  3.66451200E+03,
                      -5.00269900E+01])),
        transport=gas_transport(geom='nonlinear',
                                diam=5.349,
                                well_depth=412.3,
                                polar=10.32,
                                rot_relax=1.0),
        note='20387')

species(name='C6H5',
        atoms='C:6 H:5',
        thermo=(NASA([300.00, 1000.00],
                     [ 1.14355700E-01,  3.62732500E-02,  1.15828600E-06,
                      -2.19696500E-08,  8.46355600E-12,  3.83605400E+04,
                       2.38011700E+01]),
                NASA([1000.00, 4000.00],
                     [ 1.57758900E+01,  9.65110900E-03, -9.42941600E-07,
                      -5.46911100E-10,  1.02652200E-13,  3.30269800E+04,
                      -6.17628000E+01])),
        transport=gas_transport(geom='nonlinear',
                                diam=5.349,
                                well_depth=412.3,
                                dipole=0.3,
                                polar=10.32,
                                rot_relax=1.0),
        note='82489')

species(name='C6H4',
        atoms='H:4 C:6',
        thermo=(NASA([300.00, 1000.00],
                     [ 1.52002400E+00,  2.87661100E-02,  1.41772500E-06,
                      -1.65058900E-08,  5.87315700E-12,  4.84489400E+04,
                       1.71903400E+01]),
                NASA([1000.00, 4000.00],
                     [ 1.40162500E+01,  8.24276900E-03, -8.09966400E-07,
                      -4.65413200E-10,  8.74812200E-14,  4.41039600E+04,
                      -5.13937600E+01])),
        transport=gas_transport(geom='nonlinear',
                                diam=5.349,
                                well_depth=412.3,
                                polar=10.32,
                                rot_relax=1.0),
        note='111293')

species(name='C6H5O',
        atoms='C:6 H:5 O:1',
        thermo=(NASA([300.00, 1000.00],
                     [ 1.10749700E+00,  3.95694600E-02,  8.49729500E-07,
                      -2.43631100E-08,  9.65066000E-12,  3.15967200E+03,
                       1.97349600E+01]),
                NASA([1000.00, 4000.00],
                     [ 1.82263900E+01,  1.00398500E-02, -9.91566800E-07,
                      -5.67280400E-10,  1.06837200E-13, -2.62084600E+03,
                      -7.36139100E+01])),
        transport=gas_transport(geom='nonlinear',
                                diam=5.5,
                                well_depth=450.0,
                                dipole=0.7,
                                polar=10.32,
                                rot_relax=1.0),
        note='82489')

species(name='C6H5OH',
        atoms='C:6 H:6 O:1',
        thermo=(NASA([300.00, 1000.00],
                     [ 1.39145600E+00,  3.93195800E-02,  1.77709600E-06,
                      -2.27767300E-08,  8.30965900E-12, -1.47218100E+04,
                       1.91781300E+01]),
                NASA([1000.00, 4000.00],
                     [ 1.82163300E+01,  1.14242700E-02, -1.09668400E-06,
                      -6.42744200E-10,  1.19889300E-13, -2.05366400E+04,
                      -7.30423400E+01])),
        transport=gas_transport(geom='nonlinear',
                                diam=5.5,
                                well_depth=450.0,
                                dipole=1.224,
                                polar=10.32,
                                rot_relax=1.0),
        note='82489')

species(name='OC6H4O',
        atoms='C:6 H:4 O:2',
        thermo=(NASA([200.00, 1000.00],
                     [ 3.79867882E+00,  2.51676569E-02,  3.79846917E-05,
                      -7.06777516E-08,  3.06126573E-11, -1.72429606E+04,
                       9.80455363E+00]),
                NASA([1000.00, 6000.00],
                     [ 1.43886617E+01,  1.81624210E-02, -6.69934678E-06,
                       1.10097880E-09, -6.67372266E-14, -2.12444054E+04,
                      -5.02572901E+01])),
        transport=gas_transport(geom='nonlinear',
                                diam=5.5,
                                well_depth=450.0,
                                polar=10.32,
                                rot_relax=1.0),
        note='BURC97')

species(name='oOC6H4O',
        atoms='C:6 H:4 O:2',
        thermo=(NASA([200.00, 1000.00],
                     [ 3.79867882E+00,  2.51676569E-02,  3.79846917E-05,
                      -7.06777516E-08,  3.06126573E-11, -1.50436650E+04,
                       9.80455363E+00]),
                NASA([1000.00, 6000.00],
                     [ 1.43886617E+01,  1.81624210E-02, -6.69934678E-06,
                       1.10097880E-09, -6.67372266E-14, -1.90451100E+04,
                      -5.02572901E+01])),
        transport=gas_transport(geom='nonlinear',
                                diam=5.5,
                                well_depth=450.0,
                                polar=10.32,
                                rot_relax=1.0),
        note='S&PPG')

species(name='OC6H3O',
        atoms='C:6 H:3 O:2',
        thermo=(NASA([300.00, 1390.00],
                     [-2.92931452E+00,  6.73904031E-02, -6.07462148E-05,
                       2.68674840E-08, -4.68719407E-12,  1.19673113E+04,
                       3.78968501E+01]),
                NASA([1390.00, 5000.00],
                     [ 1.87462885E+01,  1.10879626E-02, -3.98575907E-06,
                       6.39750614E-10, -3.79893976E-14,  5.06913951E+03,
                      -7.64034638E+01])),
        transport=gas_transport(geom='nonlinear',
                                diam=5.5,
                                well_depth=450.0,
                                dipole=1.0,
                                polar=10.32,
                                rot_relax=1.0),
        note='BOZELLI')

species(name='C6H3O3',
        atoms='C:6 H:3 O:3',
        thermo=(NASA([300.00, 1000.00],
                     [-1.38895800E+01,  1.72098400E-01, -1.70066000E-04,
                       9.60188800E-08, -2.37325300E-11,  1.50323400E+04,
                       9.27073600E+01]),
                NASA([1000.00, 3000.00],
                     [ 7.29203500E+00,  9.25020000E-02, -5.16864100E-05,
                       1.36270900E-08, -1.38114800E-12,  1.03167300E+04,
                      -1.13273800E+01])),
        transport=gas_transport(geom='nonlinear',
                                diam=5.5,
                                well_depth=450.0,
                                dipole=1.0,
                                polar=10.32,
                                rot_relax=1.0),
        note='DUMMY')

species(name='C5H7',
        atoms='C:5 H:7',
        thermo=(NASA([298.15, 1000.00],
                     [-2.73230950E+00,  4.08905690E-02,  1.60060140E-05,
                      -5.60854660E-08,  2.69707360E-11,  1.90248060E+04,
                       4.01794070E+01]),
                NASA([1000.00, 5000.00],
                     [ 1.27856590E+01,  1.64578620E-02, -4.83996410E-06,
                       7.38140830E-10, -4.60003690E-14,  1.38692960E+04,
                      -4.43462430E+01])),
        transport=gas_transport(geom='nonlinear',
                                diam=5.2,
                                well_depth=408.0,
                                dipole=0.2,
                                polar=8.64,
                                rot_relax=1.0),
        note='BURC94')

species(name='C5H6',
        atoms='C:5 H:6',
        thermo=(NASA([300.00, 1000.00],
                     [-3.19673900E+00,  4.08136100E-02,  6.81650500E-07,
                      -3.13745900E-08,  1.57722300E-11,  1.52906800E+04,
                       3.86993900E+01]),
                NASA([1000.00, 5000.00],
                     [ 9.68981500E+00,  1.83826200E-02, -6.26488400E-06,
                       9.39337700E-10, -5.08770800E-14,  1.10212400E+04,
                      -3.12290800E+01])),
        transport=gas_transport(geom='nonlinear',
                                diam=5.2,
                                well_depth=408.0,
                                dipole=0.419,
                                polar=8.64,
                                rot_relax=1.0),
        note='20387')

species(name='C5H5',
        atoms='H:5 C:5',
        thermo=(NASA([300.00, 1400.00],
                     [ 1.00731600E+00,  3.18988000E-02, -4.74818900E-06,
                      -1.10239000E-08,  4.58468100E-12,  3.04739000E+04,
                       1.93416800E+01]),
                NASA([1400.00, 4000.00],
                     [ 1.53109400E+01,  7.47380600E-03, -5.83745800E-07,
                      -4.38665100E-10,  7.69683900E-14,  2.52589000E+04,
                      -5.95159300E+01])),
        transport=gas_transport(geom='nonlinear',
                                diam=5.2,
                                well_depth=408.0,
                                dipole=0.419,
                                polar=8.0,
                                rot_relax=1.0),
        note='101993')

species(name='C5H5O',
        atoms='C:5 H:5 O:1',
        thermo=(NASA([300.00, 1395.00],
                     [-4.23394180E+00,  6.26896540E-02, -5.30483570E-05,
                       2.22659990E-08, -3.65777890E-12,  2.05144080E+04,
                       4.42088160E+01]),
                NASA([1395.00, 3260.00],
                     [-4.23394180E+00,  6.26896540E-02, -5.30483570E-05,
                       2.22659990E-08, -3.65777890E-12,  2.05144080E+04,
                       4.42088160E+01])),
        transport=gas_transport(geom='nonlinear',
                                diam=5.5,
                                well_depth=450.0,
                                dipole=3.132,
                                polar=9.0,
                                rot_relax=1.0),
        note='*BOZELLI')

species(name='C5H5OH',
        atoms='C:5 H:6 O:1',
        thermo=(NASA([300.00, 1395.00],
                     [-4.30791350E+00,  6.63287430E-02, -5.66113450E-05,
                       2.41371720E-08, -4.02643430E-12, -5.74719240E+03,
                       4.49967210E+01]),
                NASA([1395.00, 3260.00],
                     [-4.30791350E+00,  6.63287430E-02, -5.66113450E-05,
                       2.41371720E-08, -4.02643430E-12, -5.74719240E+03,
                       4.49967210E+01])),
        transport=gas_transport(geom='nonlinear',
                                diam=5.5,
                                well_depth=450.0,
                                dipole=3.132,
                                polar=9.0,
                                rot_relax=1.0),
        note='*BOZELLI')

species(name='C5H4O',
        atoms='C:5 H:4 O:1',
        thermo=(NASA([298.15, 1000.00],
                     [-4.02844840E+00,  6.10128730E-02, -5.56176570E-05,
                       2.52217340E-08, -4.49574120E-12,  5.57756630E+03,
                       4.04869980E+01]),
                NASA([1000.00, 5000.00],
                     [ 1.14144290E+01,  1.59323960E-02, -6.21636120E-06,
                       1.09603370E-09, -7.20603790E-14,  2.58695940E+03,
                      -3.88728110E+01])),
        transport=gas_transport(geom='nonlinear',
                                diam=5.5,
                                well_depth=450.0,
                                dipole=3.132,
                                polar=9.0,
                                rot_relax=1.0),
        note='CYBURC94')

species(name='C5H4OH',
        atoms='C:5 H:5 O:1',
        thermo=(NASA([200.00, 1000.00],
                     [-1.28208120E+00,  4.90400750E-02, -1.36874020E-05,
                      -2.91344760E-08,  1.90068850E-11,  6.14207270E+03,
                       3.07978010E+01]),
                NASA([1000.00, 6000.00],
                     [ 1.33677770E+01,  1.52059110E-02, -5.45926620E-06,
                       8.81353250E-10, -5.27745630E-14,  3.13805150E+03,
                      -4.59200990E+01])),
        transport=gas_transport(geom='nonlinear',
                                diam=5.5,
                                well_depth=450.0,
                                dipole=3.132,
                                polar=9.6,
                                rot_relax=1.0),
        note='BURC89')

species(name='C5H4',
        atoms='C:5 H:4',
        thermo=(NASA([200.00, 1000.00],
                     [ 9.83384820E-01,  2.14294460E-02,  3.33900710E-05,