units(length='cm', time='s', quantity='mol', act_energy='cal/mol')

ideal_gas(name='gas',
          elements="C H N O Ar He",
          species="""H              H2             O
                     O2             OH             H2O
                     N2             HO2            H2O2
                     AR             CO             CO2
                     CH2O           HCO            HO2CHO
                     O2CHO          HOCHO          OCHO
                     HOCH2O2H       HOCH2O2        OCH2O2H
                     HOCH2O         CH3OH          CH2OH
                     CH3O           CH3O2H         CH3O2
                     CH4            CH3            CH2
                     CH2(S)         C              CH
                     C2H6           C2H5           C2H4
                     C2H3           C2H2           C2H
                     CH3CHO         CH3CO          CH2CHO
                     CH2CO          HCCO           HCCOH
                     CH3CO3H        CH3CO3         CH3CO2
                     C2H5OH         C2H5O          PC2H4OH
                     SC2H4OH        O2C2H4OH       C2H5O2H
                     C2H5O2         C2H4O2H        C2H4O1-2
                     C2H3O1-2       CH3COCH3       CH3COCH2
                     CH3COCH2O2     CH3COCH2O2H    CH3COCH2O
                     C2H3CHO        C2H3CO         C2H5CHO
                     C2H5CO         CH3OCH3        CH3OCH2
                     CH3OCH2O2      CH2OCH2O2H     CH3OCH2O2H
                     CH3OCH2O       O2CH2OCH2O2H   HO2CH2OCHO
                     OCH2OCHO       HOCH2OCO       CH3OCHO
                     CH3OCO         CH2OCHO        HE
                     C3H8           IC3H7          NC3H7
                     C3H6           C3H5-A         C3H5-S
                     C3H5-T         C3H4-P         C3H4-A
                     C3H3           C3H2           C3H5O
                     C3H6OOH1-2     C3H6OOH1-3     C3H6OOH2-1
                     C3H6OOH1-2O2   C3H6OOH1-3O2   C3H6OOH2-1O2
                     C3H6OOH2-2     NC3H7O2H       IC3H7O2H
                     NC3H7O2        IC3H7O2        NC3H7O
                     IC3H7O         C3H6O1-2       C3H6O1-3
                     C3KET12        C3KET13        C3KET21
                     C3H51-2,3OOH   C3H52-1,3OOH   C3H6OH
                     HOC3H6O2       CH3CHCO        AC3H5OOH
                     C2H3OOH        C4H10          C4H8-1
                     C4H8-2         PC4H9          SC4H9
                     C4H71-1        C4H71-2        C4H71-3
                     C4H71-4        C4H72-2        C4H6
                     PC4H9O2H       SC4H9O2H       PC4H9O2
                     SC4H9O2        PC4H9O         SC4H9O
                     C4H7O          C4H8O1-2       C4H8O1-3
                     C4H8O1-4       C4H8O2-3       PC4H8OH
                     SC4H8OH        C4H8OH-1O2     C4H8OH-2O2
                     C4H8OOH1-1     C4H8OOH1-2     C4H8OOH1-3
                     C4H8OOH1-4     C4H8OOH2-1     C4H8OOH2-2
                     C4H8OOH2-3     C4H8OOH2-4     C4H8OOH1-2O2
                     C4H8OOH1-3O2   C4H8OOH1-4O2   C4H8OOH2-1O2
                     C4H8OOH2-3O2   C4H8OOH2-4O2   NC4KET12
                     NC4KET13       NC4KET14       NC4KET21
                     NC4KET23       NC4KET24       C2H5COCH3
                     C2H5COCH2      CH2CH2COCH3    CH3CHCOCH3
                     C2H3COCH3      CH3CHOOCOCH3   CH2CHOOHCOCH3
                     NC3H7CHO       NC3H7CO        C3H6CHO-1
                     C3H6CHO-2      C3H6CHO-3      C2H5CHCO
                     SC3H5CHO       SC3H5CO        CH2CH2CHO
                     IC4H10         IC4H9          TC4H9
                     IC4H8          IC4H7          TC4H9O2
                     IC4H9O2        TC4H8O2H-I     IC4H8O2H-I
                     IC4H8O2H-T     IC4H8O         CC4H8O
                     IC4H9O         TC4H9O         IC4H9O2H
                     TC4H9O2H       IC4H7O         IC4H8OH
                     IO2C4H8OH      IC3H7CHO       TC3H6CHO
                     IC3H7CO        IC3H6CHO       TC4H8OOH-IO2
                     IC4H8OOH-IO2   IC4H8OOH-TO2   IC4KETII
                     IC4KETIT       IC4H7OH        IC4H6OH
                     IC3H5CHO       IC3H5CO        TC3H6OCHO
                     IC3H6CO        IC4H7OOH       TC3H6OHCHO
                     TC3H6OH        IC3H5OH        TC3H6O2CHO
                     TC3H6O2HCO     IC3H5O2HCHO    CH2CCH2OH
                     TC4H8CHO       O2C4H8CHO      O2HC4H8CO
                     C3H5OH         TIC4H7Q2-I     IIC4H7Q2-T
                     IIC4H7Q2-I     CH2O2H         NC3H7OH
                     C2H3OH         C3H6OH-3       C3H6OH-2
                     C3H6OH-1       IC3H7OH        IC3H6OH""",
          reactions='all',
          initial_state=state(temperature=300.0, pressure=OneAtm))

#-------------------------------------------------------------------------------
# Species data
#-------------------------------------------------------------------------------

species(name='H',
        atoms='H:1',
        thermo=(NASA([300.00, 1000.00],
                     [ 2.50000000E+00,  0.00000000E+00,  0.00000000E+00,
                       0.00000000E+00,  0.00000000E+00,  2.54716300E+04,
                      -4.60117600E-01]),
                NASA([1000.00, 5000.00],
                     [ 2.50000000E+00,  0.00000000E+00,  0.00000000E+00,
                       0.00000000E+00,  0.00000000E+00,  2.54716300E+04,
                      -4.60117600E-01])),
        note='120186')

species(name='H2',
        atoms='H:2',
        thermo=(NASA([300.00, 1000.00],
                     [ 3.29812400E+00,  8.24944200E-04, -8.14301500E-07,
                      -9.47543400E-11,  4.13487200E-13, -1.01252100E+03,
                      -3.29409400E+00]),
                NASA([1000.00, 5000.00],
                     [ 2.99142300E+00,  7.00064400E-04, -5.63382900E-08,
                      -9.23157800E-12,  1.58275200E-15, -8.35034000E+02,
                      -1.35511000E+00])),
        note='121286')

species(name='O',
        atoms='O:1',
        thermo=(NASA([300.00, 1000.00],
                     [ 2.94642900E+00, -1.63816600E-03,  2.42103200E-06,
                      -1.60284300E-09,  3.89069600E-13,  2.91476400E+04,
                       2.96399500E+00]),
                NASA([1000.00, 5000.00],
                     [ 2.54206000E+00, -2.75506200E-05, -3.10280300E-09,
                       4.55106700E-12, -4.36805200E-16,  2.92308000E+04,
                       4.92030800E+00])),
        note='120186')

species(name='O2',
        atoms='O:2',
        thermo=(NASA([300.00, 1000.00],
                     [ 3.21293600E+00,  1.12748600E-03, -5.75615000E-07,
                       1.31387700E-09, -8.76855400E-13, -1.00524900E+03,
                       6.03473800E+00]),
                NASA([1000.00, 5000.00],
                     [ 3.69757800E+00,  6.13519700E-04, -1.25884200E-07,
                       1.77528100E-11, -1.13643500E-15, -1.23393000E+03,
                       3.18916600E+00])),
        note='121386')

species(name='OH',
        atoms='H:1 O:1',
        thermo=(NASA([300.00, 1710.00],
                     [ 3.41896226E+00,  3.19255801E-04, -3.08292717E-07,
                       3.64407494E-10, -1.00195479E-13,  3.45264448E+03,
                       2.54433372E+00]),
                NASA([1710.00, 5000.00],
                     [ 2.85376040E+00,  1.02994334E-03, -2.32666477E-07,
                       1.93750704E-11, -3.15759847E-16,  3.69949720E+03,
                       5.78756825E+00])),
        note='7/13/0RUCIC')

species(name='H2O',
        atoms='H:2 O:1',
        thermo=(NASA([300.00, 1000.00],
                     [ 3.38684200E+00,  3.47498200E-03, -6.35469600E-06,
                       6.96858100E-09, -2.50658800E-12, -3.02081100E+04,
                       2.59023300E+00]),
                NASA([1000.00, 5000.00],
                     [ 2.67214600E+00,  3.05629300E-03, -8.73026000E-07,
                       1.20099600E-10, -6.39161800E-15, -2.98992100E+04,
                       6.86281700E+00])),
        note='20387')

species(name='N2',
        atoms='N:2',
        thermo=(NASA([300.00, 1000.00],
                     [ 3.29867700E+00,  1.40824000E-03, -3.96322200E-06,
                       5.64151500E-09, -2.44485500E-12, -1.02090000E+03,
                       3.95037200E+00]),
                NASA([1000.00, 5000.00],
                     [ 2.92664000E+00,  1.48797700E-03, -5.68476100E-07,
                       1.00970400E-10, -6.75335100E-15, -9.22797700E+02,
                       5.98052800E+00])),
        note='121286')

species(name='HO2',
        atoms='H:1 O:2',
        thermo=(NASA([200.00, 1000.00],
                     [ 4.30179801E+00, -4.74912051E-03,  2.11582891E-05,
                      -2.42763894E-08,  9.29225124E-12,  2.94808040E+02,
                       3.71666245E+00]),
                NASA([1000.00, 3500.00],
                     [ 4.01721090E+00,  2.23982013E-03, -6.33658150E-07,
                       1.14246370E-10, -1.07908535E-14,  1.11856713E+02,
                       3.78510215E+00])),
        note='L5/89')

species(name='H2O2',
        atoms='H:2 O:2',
        thermo=(NASA([300.00, 1000.00],
                     [ 3.38875400E+00,  6.56922600E-03, -1.48501300E-07,
                      -4.62580600E-09,  2.47151500E-12, -1.76631500E+04,
                       6.78536300E+00]),
                NASA([1000.00, 5000.00],
                     [ 4.57316700E+00,  4.33613600E-03, -1.47468900E-06,
                       2.34890400E-10, -1.43165400E-14, -1.80069600E+04,
                       5.01137000E-01])),
        note='120186')

species(name='AR',
        atoms='Ar:1',
        thermo=(NASA([300.00, 1000.00],
                     [ 2.50000000E+00,  0.00000000E+00,  0.00000000E+00,
                       0.00000000E+00,  0.00000000E+00, -7.45375000E+02,
                       4.36600100E+00]),
                NASA([1000.00, 5000.00],
                     [ 2.50000000E+00,  0.00000000E+00,  0.00000000E+00,
                       0.00000000E+00,  0.00000000E+00, -7.45375000E+02,
                       4.36600100E+00])),
        note='120186')

species(name='CO',
        atoms='C:1 O:1',
        thermo=(NASA([300.00, 1429.00],
                     [ 3.19036352E+00,  8.94419972E-04, -3.24927563E-08,
                      -1.04599967E-10,  2.41965693E-14, -1.42869054E+04,
                       5.33277914E+00]),
                NASA([1429.00, 5000.00],
                     [ 3.11216890E+00,  1.15948283E-03, -3.38480362E-07,
                       4.41403098E-11, -2.12862228E-15, -1.42718539E+04,
                       5.71725177E+00])),
        note='29/11/04')

species(name='CO2',
        atoms='C:1 O:2',
        thermo=(NASA([300.00, 1380.00],
                     [ 2.57930490E+00,  8.24684987E-03, -6.42716047E-06,
                       2.54637024E-09, -4.12030443E-13, -4.84162830E+04,
                       8.81141041E+00]),
                NASA([1380.00, 5000.00],
                     [ 5.18953018E+00,  2.06006476E-03, -7.33575324E-07,
                       1.17004374E-10, -6.91729215E-15, -4.93178953E+04,
                      -5.18289303E+00])),
        note='29/11/04')

species(name='CH2O',
        atoms='C:1 H:2 O:1',
        thermo=(NASA([300.00, 1486.00],
                     [ 3.00754197E+00,  3.04729496E-03,  5.25109246E-06,
                      -5.12019281E-09,  1.27133795E-12, -1.41188397E+04,
                       8.10120233E+00]),
                NASA([1486.00, 5000.00],
                     [ 4.02068394E+00,  5.09903417E-03, -1.76430480E-06,
                       2.76025879E-10, -1.60998042E-14, -1.49287258E+04,
                       1.06525547E+00])),
        note='6/29/04RUSCI')

species(name='HCO',
        atoms='H:1 C:1 O:1',
        thermo=(NASA([300.00, 1690.00],
                     [ 3.81049965E+00,  8.13269825E-04,  3.13164701E-06,
                      -2.39478268E-09,  5.06894554E-13,  4.03859901E+03,
                       4.94843165E+00]),
                NASA([1690.00, 5000.00],
                     [ 3.44148164E+00,  3.52157719E-03, -1.24136118E-06,
                       1.97328644E-10, -1.16538616E-14,  3.97409684E+03,
                       6.24593456E+00])),
        note='29/11/04')

species(name='HO2CHO',
        atoms='C:1 H:2 O:3',
        thermo=(NASA([300.00, 1378.00],
                     [ 2.42464726E+00,  2.19706380E-02, -1.68705546E-05,
                       6.25612194E-09, -9.11645843E-13, -3.54828006E+04,
                       1.75027796E+01]),
                NASA([1378.00, 5000.00],
                     [ 9.87503878E+00,  4.64663708E-03, -1.67230522E-06,
                       2.68624413E-10, -1.59595232E-14, -3.80502496E+04,
                      -2.24939155E+01])),
        note='6/26/95THERM')

species(name='O2CHO',
        atoms='C:1 H:1 O:3',
        thermo=(NASA([300.00, 1368.00],
                     [ 3.96059309E+00,  1.06002279E-02, -5.25713351E-06,
                       1.01716726E-09, -2.87487602E-14, -1.73599383E+04,
                       1.17807483E+01]),
                NASA([1368.00, 5000.00],
                     [ 7.24075139E+00,  4.63312951E-03, -1.63693995E-06,
                       2.59706693E-10, -1.52964699E-14, -1.87027618E+04,
                      -6.49547212E+00])),
        note='6/26/95THERM')

species(name='HOCHO',
        atoms='C:1 H:2 O:2',
        thermo=(NASA([300.00, 1419.00],
                     [ 1.28069021E+00,  1.52887758E-02, -5.64150476E-06,
                      -1.22968799E-09,  8.14273233E-13, -4.64347524E+04,
                       1.83142081E+01]),
                NASA([1419.00, 5000.00],
                     [ 7.67134440E+00,  4.43426373E-03, -1.60867436E-06,
                       2.59770020E-10, -1.54899704E-14, -4.89708660E+04,
                      -1.73024418E+01])),
        note='9/27/5THERM')

species(name='OCHO',
        atoms='C:1 H:1 O:2',
        thermo=(NASA([300.00, 1412.00],
                     [ 1.42991854E+00,  1.22803284E-02, -5.28461096E-06,
                      -3.73026551E-10,  5.07953571E-13, -1.62042814E+04,
                       1.80411779E+01]),
                NASA([1412.00, 5000.00],
                     [ 6.49815560E+00,  3.22319012E-03, -1.17099595E-06,
                       1.89272918E-10, -1.12937000E-14, -1.81679042E+04,
                      -1.00412613E+01])),
        note='9/27/5THERM')

species(name='HOCH2O2H',
        atoms='C:1 H:4 O:3',
        thermo=(NASA([300.00, 1422.00],
                     [ 1.85716693E+00,  3.23153132E-02, -2.69928902E-05,
                       1.11694484E-08, -1.81284103E-12, -4.00314471E+04,
                       1.90917729E+01]),
                NASA([1422.00, 5000.00],
                     [ 1.16303827E+01,  7.15133688E-03, -2.39035030E-06,
                       3.65772791E-10, -2.10199524E-14, -4.31079242E+04,
                      -3.24276725E+01])),
        note='4/9/98THERM')

species(name='HOCH2O2',
        atoms='C:1 H:3 O:3',
        thermo=(NASA([300.00, 1412.00],
                     [ 2.85441621E+00,  2.33663535E-02, -1.88115990E-05,
                       7.96709515E-09, -1.36346618E-12, -2.29866196E+04,
                       1.51730565E+01]),
                NASA([1412.00, 5000.00],
                     [ 9.04545938E+00,  7.15223373E-03, -2.37005676E-06,
                       3.60083481E-10, -2.05750228E-14, -2.49414886E+04,
                      -1.74210530E+01])),
        note='4/9/98THERM')

species(name='OCH2O2H',
        atoms='C:1 H:3 O:3',
        thermo=(NASA([300.00, 1420.00],
                     [ 1.93823075E+00,  3.01465730E-02, -2.61053152E-05,
                       1.09463562E-08, -1.78312692E-12, -1.38166625E+04,
                       1.85042002E+01]),
                NASA([1420.00, 5000.00],
                     [ 1.15398246E+01,  5.34291432E-03, -1.81878917E-06,
                       2.81968625E-10, -1.63584348E-14, -1.68237489E+04,
                      -3.20700633E+01])),
        note='4/9/98THERM')

species(name='HOCH2O',
        atoms='C:1 H:3 O:2',
        thermo=(NASA([300.00, 1452.00],
                     [ 4.11183145E+00,  7.53850697E-03,  3.77337370E-06,
                      -5.38746005E-09,  1.45615887E-12, -2.28023001E+04,
                       7.46807254E+00]),
                NASA([1452.00, 5000.00],
                     [ 6.39521515E+00,  7.43673043E-03, -2.50422354E-06,
                       3.84879712E-10, -2.21778689E-14, -2.41108840E+04,
                      -6.63865583E+00])),
        note='2/16/99THERM')

species(name='CH3OH',
        atoms='C:1 H:4 O:1',
        thermo=(NASA([300.00, 1985.00],
                     [ 1.82176844E+00,  1.23326420E-02, -2.73742177E-06,
                      -1.07387318E-09,  4.23644837E-13, -2.52222207E+04,
                       1.48104300E+01]),
                NASA([1985.00, 5000.00],
                     [ 3.92867513E+00,  9.81626074E-03, -3.40615476E-06,
                       5.35510197E-10, -3.13776029E-14, -2.61454175E+04,
                       2.69464483E+00])),
        note='2/25/4THERM')

species(name='CH2OH',
        atoms='C:1 H:3 O:1',
        thermo=(NASA([300.00, 1399.00],
                     [ 3.05674228E+00,  1.19335634E-02, -8.72501303E-06,
                       3.82781054E-09, -7.22887951E-13, -2.83140190E+03,
                       8.98878133E+00]),
                NASA([1399.00, 5000.00],
                     [ 5.41875913E+00,  5.66185244E-03, -1.87471136E-06,
                       2.84441938E-10, -1.62299798E-14, -3.61475540E+03,
                      -3.49277963E+00])),
        note='2/25/4THERM')

species(name='CH3O',
        atoms='C:1 H:3 O:1',
        thermo=(NASA([300.00, 1381.00],
                     [ 1.53767670E+00,  1.09828251E-02, -2.35050802E-06,
                      -1.39266332E-09,  5.59124429E-13,  1.06959886E+03,
                       1.55939205E+01]),
                NASA([1381.00, 5000.00],
                     [ 4.49405405E+00,  7.09791027E-03, -2.42105818E-06,
                       3.75112636E-10, -2.17301295E-14, -2.70574208E+02,
                      -1.37381296E+00])),
        note='2/25/4THERM')

species(name='CH3O2H',
        atoms='C:1 H:4 O:2',
        thermo=(NASA([300.00, 1367.00],
                     [ 2.83880024E+00,  1.86096249E-02, -8.48165412E-06,
                       1.00387451E-09,  1.71612429E-13, -1.74033753E+04,
                       1.16092433E+01]),
                NASA([1367.00, 5000.00],
                     [ 8.80409289E+00,  8.09427218E-03, -2.85843274E-06,
                       4.53369754E-10, -2.66980707E-14, -1.98512174E+04,
                      -2.17000591E+01])),
        note='1/14/5THERM')

species(name='CH3O2',
        atoms='C:1 H:3 O:2',
        thermo=(NASA([300.00, 1365.00],
                     [ 3.80497590E+00,  9.80784660E-03, -3.90940624E-07,
                      -2.23072602E-09,  6.43310820E-13, -4.55625796E+02,
                       7.81789100E+00]),
                NASA([1365.00, 5000.00],
                     [ 6.34718801E+00,  7.92089358E-03, -2.76601913E-06,
                       4.35360631E-10, -2.54984762E-14, -1.83436055E+03,
                      -7.42552545E+00])),
        note='1/14/5THERM')

species(name='CH4',
        atoms='H:4 C:1',
        thermo=(NASA([300.00, 1462.00],
                     [ 3.72113020E+00, -2.50293289E-03,  1.90246534E-05,
                      -1.46871253E-08,  3.43791152E-12, -1.01424099E+04,
                       1.22776596E+00]),
                NASA([1462.00, 5000.00],
                     [ 4.09617653E+00,  7.44330845E-03, -2.63871900E-06,
                       4.19577604E-10, -2.47508050E-14, -1.13835704E+04,
                      -4.67561383E+00])),
        note='29/11/04')

species(name='CH3',
        atoms='C:1 H:3',
        thermo=(NASA([300.00, 1389.00],
                     [ 3.43858162E+00,  4.07752664E-03,  3.19830994E-07,
                      -9.47669390E-10,  2.21828166E-13,  1.63164018E+04,
                       2.52807406E+00]),
                NASA([1389.00, 5000.00],
                     [ 3.51281376E+00,  5.11412613E-03, -1.67632050E-06,
                       2.52495174E-10, -1.43302923E-14,  1.61238027E+04,
                       1.62436112E+00])))

species(name='CH2',
        atoms='C:1 H:2',
        thermo=(NASA([250.00, 1000.00],
                     [ 3.76223700E+00,  1.15981900E-03,  2.48958500E-07,
                       8.80083600E-10, -7.33243500E-13,  4.53679100E+04,
                       1.71257800E+00]),
                NASA([1000.00, 4000.00],
                     [ 3.63640800E+00,  1.93305700E-03, -1.68701600E-07,
                      -1.00989900E-10,  1.80825600E-14,  4.53413400E+04,
                       2.15656100E+00])),
        note='120186')

species(name='CH2(S)',
        atoms='C:1 H:2',
        thermo=(NASA([300.00, 1000.00],
                     [ 3.97126500E+00, -1.69908900E-04,  1.02536900E-06,
                       2.49255100E-09, -1.98126600E-12,  4.98936800E+04,
                       5.75320700E-02]),
                NASA([1000.00, 4000.00],
                     [ 3.55288900E+00,  2.06678800E-03, -1.91411600E-07,
                      -1.10467300E-10,  2.02135000E-14,  4.98497500E+04,
                       1.68657000E+00])),
        note='31287')

species(name='C',
        atoms='C:1',
        thermo=(NASA([300.00, 1000.00],
                     [ 2.49858500E+00,  8.08577700E-05, -2.69769700E-07,
                       3.04072900E-10, -1.10665200E-13,  8.54587800E+04,
                       4.75345900E+00]),
                NASA([1000.00, 5000.00],
                     [ 2.60208700E+00, -1.78708100E-04,  9.08704100E-08,
                      -1.14993300E-11,  3.31084400E-16,  8.54215400E+04,
                       4.19517700E+00])))

species(name='CH',
        atoms='C:1 H:1',
        thermo=(NASA([300.00, 1000.00],
                     [ 3.20020200E+00,  2.07287600E-03, -5.13443100E-06,
                       5.73389000E-09, -1.95553300E-12,  7.04525900E+04,
                       3.33158800E+00]),
                NASA([1000.00, 5000.00],
                     [ 2.19622300E+00,  2.34038100E-03, -7.05820100E-07,
                       9.00758200E-11, -3.85504000E-15,  7.08672300E+04,
                       9.17837300E+00])),
        note='121286')

species(name='C2H6',
        atoms='C:2 H:6',
        thermo=(NASA([300.00, 1383.00],
                     [ 4.78623203E-02,  2.40569127E-02, -1.15155912E-05,
                       2.48666238E-09, -1.78343944E-13, -1.10923014E+04,
                       2.06544071E+01]),
                NASA([1383.00, 5000.00],
                     [ 6.05972630E+00,  1.30382837E-02, -4.48103942E-06,
                       6.97762095E-10, -4.05606353E-14, -1.35751226E+04,
                      -1.28608001E+01])),
        note='8/4/4THERM')

species(name='C2H5',
        atoms='C:2 H:5',
        thermo=(NASA([300.00, 1387.00],
                     [ 1.32730217E+00,  1.76656753E-02, -6.14926558E-06,
                      -3.01143466E-10,  4.38617775E-13,  1.34284028E+04,
                       1.71789216E+01]),
                NASA([1387.00, 5000.00],
                     [ 5.88784390E+00,  1.03076793E-02, -3.46844396E-06,
                       5.32499257E-10, -3.06512651E-14,  1.15065499E+04,
                      -8.49651771E+00])),
        note='8/4/4THERM')

species(name='C2H4',
        atoms='C:2 H:4',
        thermo=(NASA([300.00, 1395.00],
                     [ 2.33879687E-01,  1.96334647E-02, -1.16833214E-05,
                       3.64246453E-09, -4.77442715E-13,  5.46489338E+03,
                       1.97084228E+01]),
                NASA([1395.00, 5000.00],
                     [ 5.22176372E+00,  8.96137303E-03, -3.04868886E-06,
                       4.71465524E-10, -2.72739592E-14,  3.60389679E+03,
                      -7.47789234E+00])),
        note='10/4/5THERM')

species(name='C2H3',
        atoms='C:2 H:3',
        thermo=(NASA([300.00, 1395.00],
                     [ 1.25329724E+00,  1.56258370E-02, -1.07803879E-05,
                       4.18054634E-09, -7.01360362E-13,  3.50734773E+04,
                       1.71341661E+01]),
                NASA([1395.00, 5000.00],
                     [ 5.07331248E+00,  6.58316278E-03, -2.23762924E-06,
                       3.45803379E-10, -1.99940490E-14,  3.37234748E+04,
                      -3.39792712E+00])),
        note='10/4/5THERM')

species(name='C2H2',
        atoms='C:2 H:2',
        thermo=(NASA([300.00, 1407.00],
                     [ 2.06742667E+00,  1.46568506E-02, -1.52947063E-05,
                       8.30965761E-09, -1.72932175E-12,  2.59578589E+04,
                       8.62758672E+00]),
                NASA([1407.00, 5000.00],
                     [ 4.98265164E+00,  4.25992930E-03, -1.37483523E-06,
                       2.04717964E-10, -1.15191740E-14,  2.52697118E+04,
                      -5.81321385E+00])),
        note='10/4/5THERM')

species(name='C2H',
        atoms='C:2 H:1',
        thermo=(NASA([300.00, 1361.00],
                     [ 4.27708350E+00,  1.74130076E-03,  7.31180206E-07,
                      -9.71827901E-10,  2.36956727E-13,  6.63125955E+04,
                       3.16341916E-01]),
                NASA([1361.00, 5000.00],
                     [ 4.66893822E+00,  2.01284720E-03, -7.01828634E-07,
                       1.10347228E-10, -6.45790465E-15,  6.60310696E+04,
                      -2.25424693E+00])),
        note='10/4/5THERM')

species(name='CH3CHO',
        atoms='C:2 H:4 O:1',
        thermo=(NASA([300.00, 1377.00],
                     [ 1.77060035E+00,  1.84475161E-02, -7.24138162E-06,
                       2.34364561E-10,  3.35543891E-13, -2.18078850E+04,
                       1.65023437E+01]),
                NASA([1377.00, 5000.00],
                     [ 6.98518866E+00,  9.67897787E-03, -3.31841954E-06,
                       5.16025901E-10, -2.99725903E-14, -2.39807279E+04,
                      -1.27484852E+01])),
        note='8/10/4THERM')

species(name='CH3CO',
        atoms='C:2 H:3 O:1',
        thermo=(NASA([300.00, 1371.00],
                     [ 2.52884150E+00,  1.37152173E-02, -4.28607476E-06,
                      -7.71684278E-10,  4.83836380E-13, -3.02546532E+03,
                       1.40340315E+01]),
                NASA([1371.00, 5000.00],
                     [ 6.56682466E+00,  7.55308669E-03, -2.59966784E-06,
                       4.05334994E-10, -2.35876164E-14, -4.76690401E+03,
                      -8.83301965E+00])),
        note='8/10/4THERM')

species(name='CH2CHO',
        atoms='C:2 H:3 O:1',
        thermo=(NASA([300.00, 1388.00],
                     [ 1.47616956E+00,  2.08974186E-02, -1.50123552E-05,
                       5.62967382E-09, -8.76624470E-13, -4.82050510E+02,
                       1.63756465E+01]),
                NASA([1388.00, 5000.00],
                     [ 7.54145790E+00,  6.82297125E-03, -2.36938607E-06,
                       3.71633517E-10, -2.17160048E-14, -2.61437239E+03,
                      -1.62602766E+01])),
        note='8/10/4THERM')

species(name='CH2CO',
        atoms='C:2 H:2 O:1',
        thermo=(NASA([300.00, 1000.00],
                     [ 2.97497100E+00,  1.21187100E-02, -2.34504600E-06,
                      -6.46668500E-09,  3.90564900E-12, -7.63263700E+03,
                       8.67355300E+00]),
                NASA([1000.00, 5000.00],
                     [ 6.03881700E+00,  5.80484000E-03, -1.92095400E-06,
                       2.79448500E-10, -1.45886800E-14, -8.58340200E+03,
                      -7.65758100E+00])),
        note='121686')

species(name='HCCO',
        atoms='H:1 C:2 O:1',
        thermo=(NASA([300.00, 1000.00],
                     [ 5.04796500E+00,  4.45347800E-03,  2.26828300E-07,
                      -1.48209500E-09,  2.25074200E-13,  1.96589200E+04,
                       4.81843900E-01]),
                NASA([1000.00, 4000.00],
                     [ 6.75807300E+00,  2.00040000E-03, -2.02760700E-07,
                      -1.04113200E-10,  1.96516500E-14,  1.90151300E+04,
                      -9.07126200E+00])),
        note='32387')

species(name='HCCOH',
        atoms='H:2 C:2 O:1',
        thermo=(NASA([300.00, 1000.00],
                     [ 3.89946500E+00,  9.70107500E-03, -3.11930900E-07,
                      -5.53773200E-09,  2.46573200E-12,  8.70119000E+03,
                       4.49187500E+00]),
                NASA([1000.00, 4000.00],
                     [ 7.32832400E+00,  3.33641600E-03, -3.02470500E-07,
                      -1.78110600E-10,  3.24516800E-14,  7.59825800E+03,
                      -1.40121400E+01])),
        note='32387')

species(name='CH3CO3H',
        atoms='C:2 H:4 O:3',
        thermo=(NASA([300.00, 1391.00],
                     [ 2.24135876E+00,  3.37963514E-02, -2.53887482E-05,
                       9.67583587E-09, -1.49266157E-12, -4.24677831E+04,
                       1.70668133E+01]),
                NASA([1391.00, 5000.00],
                     [ 1.25060485E+01,  9.47789695E-03, -3.30402246E-06,
                       5.19630793E-10, -3.04233568E-14, -4.59856703E+04,
                      -3.79195947E+01])),
        note='6/26/95THERM')

species(name='CH3CO3',
        atoms='C:2 H:3 O:3',
        thermo=(NASA([300.00, 1391.00],
                     [ 3.60373432E+00,  2.70080341E-02, -2.08293438E-05,
                       8.50541104E-09, -1.43846110E-12, -2.34205171E+04,
                       1.12014914E+01]),
                NASA([1391.00, 5000.00],
                     [ 1.12522498E+01,  8.33652672E-03, -2.89014530E-06,
                       4.52781734E-10, -2.64354456E-14, -2.60238584E+04,
                      -2.96370457E+01])),
        note='4/3/0THERM')

species(name='CH3CO2',