"""
A Jet-Stirred Reactor and Kinetic Modeling Study of Ethyl Propanoate
W. K. Metcalfe, C. Togbe, P. Dagaut, H. J. Curran, J. M. Simmie
Submitted to Combustion and Flame, 2008
"""

units(length='cm', time='s', quantity='mol', act_energy='cal/mol')

ideal_gas(name='gas',
          elements="C H N O Ar He",
          species="""H             HE            H2            C2H3
                     CH3OCH2O2H    C3H6O1-2      O             C2H2
                     CH3OCH2O      C3H6O1-3      O2            C2H
                     O2CH2OCH2O2H  C3KET12       OH            CH3CHO
                     HO2CH2OCHO    C3KET13       H2O           CH3CO
                     OCH2OCHO      C3KET21       N2            CH2CHO
                     HOCH2OCO      C3H51-2,3OOH  HO2           CH2CO
                     CH3OCHO       C3H52-1,3OOH  H2O2          HCCO
                     CH3OCO        C3H6OH        AR            HCCOH
                     CH2OCHO       HOC3H6O2      CO            CH3CO3H
                     CH3CHCO       CO2           CH3CO3        C3H8
                     AC3H5OOH      CH2O          CH3CO2        IC3H7
                     C2H3OOH       HCO           C2H5OH        NC3H7
                     EP            HO2CHO        C2H5O         C3H6
                     EP3J          O2CHO         PC2H4OH       C3H5-A
                     EP2J          HOCHO         SC2H4OH       C3H5-S
                     EPEJ          OCHO          O2C2H4OH      C3H5-T
                     EPMJ          HOCH2O2H      C2H5O2H       C3H4-P
                     EE2J          HOCH2O2       C2H5O2        C3H4-A
                     MPMJ          OCH2O2H       C2H4O2H       C3H3
                     EP1D          HOCH2O        C2H4O1-2      C3H2
                     EP1DEJ        CH3OH         C2H3O1-2      C3H5O
                     EP1DMJ        CH2OH         CH3COCH3      C3H6OOH1-2
                     MP1DMJ        CH3O          CH3COCH2      C3H6OOH1-3
                     C2H3COOH      CH3O2H        CH3COCH2O2    C3H6OOH2-1
                     C2H5COOH      CH3O2         CH3COCH2O2H   C3H6OOH1-2O2
                     CH2CH2COOH    CH4           CH3COCH2O     C3H6OOH1-3O2
                     CH3CHCOOH     CH3           C2H3CHO       C3H6OOH2-1O2
                     CH2COOH       CH2           C2H3CO        C3H6OOH2-2
                     HOCO          CH2(S)        C2H5CHO       NC3H7O2H
                     C2H5OCO       C             C2H5CO        IC3H7O2H
                     C2H5CO2       CH            CH3OCH3       NC3H7O2
                     CH2CHCO       C2H6          CH3OCH2       IC3H7O2
                     C2H3CO2       C2H5          CH3OCH2O2     NC3H7O
                     C2H4          CH2OCH2O2H    IC3H7O""",
          reactions='all',
          initial_state=state(temperature=300.0, pressure=OneAtm))

#-------------------------------------------------------------------------------
# Species data
#-------------------------------------------------------------------------------

species(name='H',
        atoms='H:1',
        thermo=(NASA([300.00, 1000.00],
                     [ 2.50000000E+00,  0.00000000E+00,  0.00000000E+00,
                       0.00000000E+00,  0.00000000E+00,  2.54716300E+04,
                      -4.60117600E-01]),
                NASA([1000.00, 5000.00],
                     [ 2.50000000E+00,  0.00000000E+00,  0.00000000E+00,
                       0.00000000E+00,  0.00000000E+00,  2.54716300E+04,
                      -4.60117600E-01])),
        note='120186')

species(name='HE',
        atoms='He:1',
        thermo=(NASA([300.00, 1000.00],
                     [ 2.50000000E+00,  0.00000000E+00,  0.00000000E+00,
                       0.00000000E+00,  0.00000000E+00, -7.45375000E+02,
                       9.15348800E-01]),
                NASA([1000.00, 5000.00],
                     [ 2.50000000E+00,  0.00000000E+00,  0.00000000E+00,
                       0.00000000E+00,  0.00000000E+00, -7.45375000E+02,
                       9.15348900E-01])),
        note='120186')

species(name='H2',
        atoms='H:2',
        thermo=(NASA([300.00, 1000.00],
                     [ 3.29812400E+00,  8.24944200E-04, -8.14301500E-07,
                      -9.47543400E-11,  4.13487200E-13, -1.01252100E+03,
                      -3.29409400E+00]),
                NASA([1000.00, 5000.00],
                     [ 2.99142300E+00,  7.00064400E-04, -5.63382900E-08,
                      -9.23157800E-12,  1.58275200E-15, -8.35034000E+02,
                      -1.35511000E+00])),
        note='121286')

species(name='C2H3',
        atoms='C:2 H:3',
        thermo=(NASA([300.00, 1395.00],
                     [ 1.25329724E+00,  1.56258370E-02, -1.07803879E-05,
                       4.18054634E-09, -7.01360362E-13,  3.50734773E+04,
                       1.71341661E+01]),
                NASA([1395.00, 5000.00],
                     [ 5.07331248E+00,  6.58316278E-03, -2.23762924E-06,
                       3.45803379E-10, -1.99940490E-14,  3.37234748E+04,
                      -3.39792712E+00])),
        note='10/4/5THERM')

species(name='CH3OCH2O2H',
        atoms='C:2 H:6 O:3',
        thermo=(NASA([300.00, 1392.00],
                     [ 1.19855761E+00,  4.59060764E-02, -3.66252420E-05,
                       1.49318970E-08, -2.46057445E-12, -3.65363161E+04,
                       2.31339904E+01]),
                NASA([1392.00, 5000.00],
                     [ 1.49370964E+01,  1.19465829E-02, -4.12746359E-06,
                       6.45422590E-10, -3.76427939E-14, -4.11001068E+04,
                      -4.99552737E+01])),
        note='7/20/98THERM')

species(name='C3H6O1-2',
        atoms='C:3 H:6 O:1',
        thermo=(NASA([300.00, 1379.00],
                     [-1.21988153E+00,  4.28578772E-02, -3.17530249E-05,
                       1.21763736E-08, -1.94154303E-12, -1.22953761E+04,
                       2.88467826E+01]),
                NASA([1379.00, 5000.00],
                     [ 1.19825289E+01,  1.23964696E-02, -4.39113813E-06,
                       6.97911182E-10, -4.11585127E-14, -1.69739189E+04,
                      -4.22894035E+01])),
        note='1/22/95THERM')

species(name='O',
        atoms='O:1',
        thermo=(NASA([300.00, 1000.00],
                     [ 2.94642900E+00, -1.63816600E-03,  2.42103200E-06,
                      -1.60284300E-09,  3.89069600E-13,  2.91476400E+04,
                       2.96399500E+00]),
                NASA([1000.00, 5000.00],
                     [ 2.54206000E+00, -2.75506200E-05, -3.10280300E-09,
                       4.55106700E-12, -4.36805200E-16,  2.92308000E+04,
                       4.92030800E+00])),
        note='120186')

species(name='C2H2',
        atoms='C:2 H:2',
        thermo=(NASA([300.00, 1407.00],
                     [ 2.06742667E+00,  1.46568506E-02, -1.52947063E-05,
                       8.30965761E-09, -1.72932175E-12,  2.59578589E+04,
                       8.62758672E+00]),
                NASA([1407.00, 5000.00],
                     [ 4.98265164E+00,  4.25992930E-03, -1.37483523E-06,
                       2.04717964E-10, -1.15191740E-14,  2.52697118E+04,
                      -5.81321385E+00])),
        note='10/4/5THERM')

species(name='CH3OCH2O',
        atoms='C:2 H:5 O:2',
        thermo=(NASA([300.00, 2012.00],
                     [ 3.25889339E+00,  2.22146359E-02, -7.78556340E-06,
                      -2.41484158E-10,  4.51914496E-13, -1.92377212E+04,
                       1.23680069E+01]),
                NASA([2012.00, 5000.00],
                     [ 8.60261845E+00,  1.35772195E-02, -4.84661602E-06,
                       7.77766193E-10, -4.62633624E-14, -2.13762444E+04,
                      -1.75775023E+01])),
        note='2/9/96THERM')

species(name='C3H6O1-3',
        atoms='C:3 H:6 O:1',
        thermo=(NASA([300.00, 2035.00],
                     [-2.75717996E+00,  4.26371602E-02, -2.56831231E-05,
                       6.62981208E-09, -5.31193325E-13, -1.00990375E+04,
                       3.67181804E+01]),
                NASA([2035.00, 5000.00],
                     [ 1.02363953E+01,  1.50514705E-02, -5.63636534E-06,
                       9.32463455E-10, -5.66102441E-14, -1.46212029E+04,
                      -3.36724732E+01])),
        note='1/22/95THERM')

species(name='O2',
        atoms='O:2',
        thermo=(NASA([300.00, 1000.00],
                     [ 3.21293600E+00,  1.12748600E-03, -5.75615000E-07,
                       1.31387700E-09, -8.76855400E-13, -1.00524900E+03,
                       6.03473800E+00]),
                NASA([1000.00, 5000.00],
                     [ 3.69757800E+00,  6.13519700E-04, -1.25884200E-07,
                       1.77528100E-11, -1.13643500E-15, -1.23393000E+03,
                       3.18916600E+00])),
        note='121386')

species(name='C2H',
        atoms='C:2 H:1',
        thermo=(NASA([300.00, 1361.00],
                     [ 4.27708350E+00,  1.74130076E-03,  7.31180206E-07,
                      -9.71827901E-10,  2.36956727E-13,  6.63125955E+04,
                       3.16341916E-01]),
                NASA([1361.00, 5000.00],
                     [ 4.66893822E+00,  2.01284720E-03, -7.01828634E-07,
                       1.10347228E-10, -6.45790465E-15,  6.60310696E+04,
                      -2.25424693E+00])),
        note='10/4/5THERM')

species(name='O2CH2OCH2O2H',
        atoms='C:2 H:5 O:5',
        thermo=(NASA([300.00, 1402.00],
                     [ 1.99640551E+00,  5.83226232E-02, -5.53259778E-05,
                       2.59810540E-08, -4.77141005E-12, -3.27628742E+04,
                       2.44215005E+01]),
                NASA([1402.00, 5000.00],
                     [ 1.92038046E+01,  1.04394841E-02, -3.60582939E-06,
                       5.63792843E-10, -3.28807214E-14, -3.79207055E+04,
                      -6.51847273E+01])),
        note='7/20/98TRM')

species(name='C3KET12',
        atoms='C:3 H:6 O:3',
        thermo=(NASA([300.00, 1388.00],
                     [ 1.10507238E+00,  5.27396706E-02, -4.31805774E-05,
                       1.81618292E-08, -3.10535568E-12, -3.63627536E+04,
                       2.54111636E+01]),
                NASA([1388.00, 5000.00],
                     [ 1.70756225E+01,  1.31013491E-02, -4.61949408E-06,
                       7.31991329E-10, -4.30788679E-14, -4.17008637E+04,
                      -5.95778952E+01])),
        note='7/19/0THERM')

species(name='OH',
        atoms='H:1 O:1',
        thermo=(NASA([300.00, 1710.00],
                     [ 3.41896226E+00,  3.19255801E-04, -3.08292717E-07,
                       3.64407494E-10, -1.00195479E-13,  3.45264448E+03,
                       2.54433372E+00]),
                NASA([1710.00, 5000.00],
                     [ 2.85376040E+00,  1.02994334E-03, -2.32666477E-07,
                       1.93750704E-11, -3.15759847E-16,  3.69949720E+03,
                       5.78756825E+00])),
        note='7/13/0RUCIC')

species(name='CH3CHO',
        atoms='C:2 H:4 O:1',
        thermo=(NASA([300.00, 1377.00],
                     [ 1.77060035E+00,  1.84475161E-02, -7.24138162E-06,
                       2.34364561E-10,  3.35543891E-13, -2.18078850E+04,
                       1.65023437E+01]),
                NASA([1377.00, 5000.00],
                     [ 6.98518866E+00,  9.67897787E-03, -3.31841954E-06,
                       5.16025901E-10, -2.99725903E-14, -2.39807279E+04,
                      -1.27484852E+01])),
        note='8/10/4THERM')

species(name='HO2CH2OCHO',
        atoms='C:2 H:4 O:4',
        thermo=(NASA([300.00, 1387.00],
                     [ 3.47935703E+00,  4.02952392E-02, -3.30109296E-05,
                       1.34360117E-08, -2.18601580E-12, -5.80629934E+04,
                       1.52521392E+01]),
                NASA([1387.00, 5000.00],
                     [ 1.64584298E+01,  8.52683511E-03, -3.04113500E-06,
                       4.85596908E-10, -2.87316334E-14, -6.23959608E+04,
                      -5.38924139E+01])),
        note='8/31/99THERM')

species(name='C3KET13',
        atoms='C:3 H:6 O:3',
        thermo=(NASA([300.00, 1379.00],
                     [ 3.55241022E+00,  4.18720270E-02, -2.94550370E-05,
                       1.09982900E-08, -1.75045977E-12, -3.48902671E+04,
                       1.42082894E+01]),
                NASA([1379.00, 5000.00],
                     [ 1.58927479E+01,  1.40990923E-02, -4.96118851E-06,
                       7.84992198E-10, -4.61488928E-14, -3.93774829E+04,
                      -5.26049341E+01])),
        note='7/19/0THERM')

species(name='H2O',
        atoms='H:2 O:1',
        thermo=(NASA([300.00, 1000.00],
                     [ 3.38684200E+00,  3.47498200E-03, -6.35469600E-06,
                       6.96858100E-09, -2.50658800E-12, -3.02081100E+04,
                       2.59023300E+00]),
                NASA([1000.00, 5000.00],
                     [ 2.67214600E+00,  3.05629300E-03, -8.73026000E-07,
                       1.20099600E-10, -6.39161800E-15, -2.98992100E+04,
                       6.86281700E+00])),
        note='20387')

species(name='CH3CO',
        atoms='C:2 H:3 O:1',
        thermo=(NASA([300.00, 1371.00],
                     [ 2.52884150E+00,  1.37152173E-02, -4.28607476E-06,
                      -7.71684278E-10,  4.83836380E-13, -3.02546532E+03,
                       1.40340315E+01]),
                NASA([1371.00, 5000.00],
                     [ 6.56682466E+00,  7.55308669E-03, -2.59966784E-06,
                       4.05334994E-10, -2.35876164E-14, -4.76690401E+03,
                      -8.83301965E+00])),
        note='8/10/4THERM')

species(name='OCH2OCHO',
        atoms='C:2 H:3 O:3',
        thermo=(NASA([300.00, 1475.00],
                     [ 5.19690837E+00,  1.58839723E-02,  3.53540547E-07,
                      -6.10456923E-09,  1.94661801E-12, -4.02242792E+04,
                       6.11645828E+00]),
                NASA([1475.00, 5000.00],
                     [ 1.20233916E+01,  8.11262659E-03, -2.91356462E-06,
                       4.67340384E-10, -2.77375525E-14, -4.33647231E+04,
                      -3.33691809E+01])),
        note='4/9/98THERM')

species(name='C3KET21',
        atoms='C:3 H:6 O:3',
        thermo=(NASA([300.00, 1371.00],
                     [ 4.55686367E+00,  3.57076837E-02, -1.94712054E-05,
                       4.70695431E-09, -3.69753807E-13, -3.86710975E+04,
                       9.97761694E+00]),
                NASA([1371.00, 5000.00],
                     [ 1.56377776E+01,  1.44059342E-02, -5.08808082E-06,
                       8.07076119E-10, -4.75295650E-14, -4.30657975E+04,
                      -5.13105869E+01])),
        note='7/19/0THERM')

species(name='N2',
        atoms='N:2',
        thermo=(NASA([300.00, 1000.00],
                     [ 3.29867700E+00,  1.40824000E-03, -3.96322200E-06,
                       5.64151500E-09, -2.44485500E-12, -1.02090000E+03,
                       3.95037200E+00]),
                NASA([1000.00, 5000.00],
                     [ 2.92664000E+00,  1.48797700E-03, -5.68476100E-07,
                       1.00970400E-10, -6.75335100E-15, -9.22797700E+02,
                       5.98052800E+00])),
        note='121286')

species(name='CH2CHO',
        atoms='C:2 H:3 O:1',
        thermo=(NASA([300.00, 1388.00],
                     [ 1.47616956E+00,  2.08974186E-02, -1.50123552E-05,
                       5.62967382E-09, -8.76624470E-13, -4.82050510E+02,
                       1.63756465E+01]),
                NASA([1388.00, 5000.00],
                     [ 7.54145790E+00,  6.82297125E-03, -2.36938607E-06,
                       3.71633517E-10, -2.17160048E-14, -2.61437239E+03,
                      -1.62602766E+01])),
        note='8/10/4THERM')

species(name='HOCH2OCO',
        atoms='C:2 H:3 O:3',
        thermo=(NASA([300.00, 1603.00],
                     [ 6.08180801E+00,  1.28768359E-02,  2.04419418E-06,
                      -6.10154921E-09,  1.79820559E-12, -4.39526183E+04,
                       2.54054449E+00]),
                NASA([1603.00, 5000.00],
                     [ 1.13737391E+01,  8.17663898E-03, -2.92034021E-06,
                       4.66695616E-10, -2.76276823E-14, -4.65575743E+04,
                      -2.86035265E+01])),
        note='8/31/99THERM')

species(name='C3H51-2,3OOH',
        atoms='C:3 H:7 O:4',
        thermo=(NASA([300.00, 1386.00],
                     [ 2.55619708E+00,  6.13504487E-02, -5.23205391E-05,
                       2.28208029E-08, -4.02231508E-12, -1.31353414E+04,
                       2.21043799E+01]),
                NASA([1386.00, 5000.00],
                     [ 2.12378169E+01,  1.39519596E-02, -4.94539222E-06,
                       7.86381389E-10, -4.63925564E-14, -1.92864584E+04,
                      -7.69636561E+01])),
        note='8/26/3THRM')

species(name='HO2',
        atoms='H:1 O:2',
        thermo=(NASA([200.00, 1000.00],
                     [ 4.30179801E+00, -4.74912051E-03,  2.11582891E-05,
                      -2.42763894E-08,  9.29225124E-12,  2.94808040E+02,
                       3.71666245E+00]),
                NASA([1000.00, 3500.00],
                     [ 4.01721090E+00,  2.23982013E-03, -6.33658150E-07,
                       1.14246370E-10, -1.07908535E-14,  1.11856713E+02,
                       3.78510215E+00])),
        note='L5/89')

species(name='CH2CO',
        atoms='C:2 H:2 O:1',
        thermo=(NASA([300.00, 1000.00],
                     [ 2.97497100E+00,  1.21187100E-02, -2.34504600E-06,
                      -6.46668500E-09,  3.90564900E-12, -7.63263700E+03,
                       8.67355300E+00]),
                NASA([1000.00, 5000.00],
                     [ 6.03881700E+00,  5.80484000E-03, -1.92095400E-06,
                       2.79448500E-10, -1.45886800E-14, -8.58340200E+03,
                      -7.65758100E+00])),
        note='121686')

species(name='CH3OCHO',
        atoms='C:2 H:4 O:2',
        thermo=(NASA([300.00, 1452.00],
                     [ 2.43526200E+00,  1.81948325E-02,  1.91236590E-06,
                      -8.44248945E-09,  2.61758910E-12, -4.46514732E+04,
                       1.49522265E+01]),
                NASA([1452.00, 5000.00],
                     [ 1.06569185E+01,  9.38112723E-03, -3.37677206E-06,
                       5.42455596E-10, -3.22295330E-14, -4.84651758E+04,
                      -3.27579443E+01])),
        note='4/15/8THERM')

species(name='C3H52-1,3OOH',
        atoms='C:3 H:7 O:4',
        thermo=(NASA([300.00, 1379.00],
                     [ 4.12253742E+00,  5.19553611E-02, -3.83733727E-05,
                       1.45851637E-08, -2.29820536E-12, -1.22759164E+04,
                       1.48367359E+01]),
                NASA([1379.00, 5000.00],
                     [ 2.02817964E+01,  1.48155431E-02, -5.25503386E-06,
                       8.35963453E-10, -4.93308915E-14, -1.80085066E+04,
                      -7.22688262E+01])),
        note='8/26/3THRM')

species(name='H2O2',
        atoms='H:2 O:2',
        thermo=(NASA([300.00, 1000.00],
                     [ 3.38875400E+00,  6.56922600E-03, -1.48501300E-07,
                      -4.62580600E-09,  2.47151500E-12, -1.76631500E+04,
                       6.78536300E+00]),
                NASA([1000.00, 5000.00],
                     [ 4.57316700E+00,  4.33613600E-03, -1.47468900E-06,
                       2.34890400E-10, -1.43165400E-14, -1.80069600E+04,
                       5.01137000E-01])),
        note='120186')

species(name='HCCO',
        atoms='H:1 C:2 O:1',
        thermo=(NASA([300.00, 1000.00],
                     [ 5.04796500E+00,  4.45347800E-03,  2.26828300E-07,
                      -1.48209500E-09,  2.25074200E-13,  1.96589200E+04,
                       4.81843900E-01]),
                NASA([1000.00, 4000.00],
                     [ 6.75807300E+00,  2.00040000E-03, -2.02760700E-07,
                      -1.04113200E-10,  1.96516500E-14,  1.90151300E+04,
                      -9.07126200E+00])),
        note='32387')

species(name='CH3OCO',
        atoms='C:2 H:3 O:2',
        thermo=(NASA([300.00, 1423.00],
                     [ 2.83313145E+00,  1.53447505E-02,  1.89583962E-06,
                      -7.70200413E-09,  2.41564410E-12, -2.13431832E+04,
                       1.39524183E+01]),
                NASA([1423.00, 5000.00],
                     [ 1.02053021E+01,  7.12269668E-03, -2.57594255E-06,
                       4.15104358E-10, -2.47168227E-14, -2.46870635E+04,
                      -2.86407262E+01])),
        note='4/15/8THERM')

species(name='C3H6OH',
        atoms='C:3 H:7 O:1',
        thermo=(NASA([300.00, 1674.00],
                     [ 1.20494302E+00,  3.30857885E-02, -1.63893637E-05,
                       3.18103918E-09, -6.84229288E-14, -9.12961720E+03,
                       2.47155202E+01]),
                NASA([1674.00, 5000.00],
                     [ 9.31287816E+00,  1.67579212E-02, -5.75555480E-06,
                       9.00584362E-10, -5.26566836E-14, -1.20169635E+04,
                      -1.95011064E+01])),
        note='1/7/98THERM')

species(name='AR',
        atoms='Ar:1',
        thermo=(NASA([300.00, 1000.00],
                     [ 2.50000000E+00,  0.00000000E+00,  0.00000000E+00,
                       0.00000000E+00,  0.00000000E+00, -7.45375000E+02,
                       4.36600100E+00]),
                NASA([1000.00, 5000.00],
                     [ 2.50000000E+00,  0.00000000E+00,  0.00000000E+00,
                       0.00000000E+00,  0.00000000E+00, -7.45375000E+02,
                       4.36600100E+00])),
        note='120186')

species(name='HCCOH',
        atoms='H:2 C:2 O:1',
        thermo=(NASA([300.00, 1000.00],
                     [ 3.89946500E+00,  9.70107500E-03, -3.11930900E-07,
                      -5.53773200E-09,  2.46573200E-12,  8.70119000E+03,
                       4.49187500E+00]),
                NASA([1000.00, 4000.00],
                     [ 7.32832400E+00,  3.33641600E-03, -3.02470500E-07,
                      -1.78110600E-10,  3.24516800E-14,  7.59825800E+03,
                      -1.40121400E+01])),
        note='32387')

species(name='CH2OCHO',
        atoms='C:2 H:3 O:2',
        thermo=(NASA([300.00, 1442.00],
                     [ 2.31031671E+00,  1.80474065E-02, -2.71519637E-06,
                      -4.60918579E-09,  1.70037078E-12, -2.02910878E+04,
                       1.71549722E+01]),
                NASA([1442.00, 5000.00],
                     [ 1.00960096E+01,  7.19887066E-03, -2.59813465E-06,
                       4.18110812E-10, -2.48723387E-14, -2.36389018E+04,
                      -2.71144175E+01])),
        note='4/15/8THERM')

species(name='HOC3H6O2',
        atoms='C:3 H:7 O:3',
        thermo=(NASA([300.00, 1397.00],
                     [ 3.06954289E+00,  4.43105640E-02, -3.18636260E-05,
                       1.26409287E-08, -2.12751901E-12, -2.75893676E+04,
                       1.83891218E+01]),
                NASA([1397.00, 5000.00],
                     [ 1.42691004E+01,  1.71837825E-02, -5.83419536E-06,
                       9.00994191E-10, -5.20716210E-14, -3.14501750E+04,
                      -4.15295035E+01])),
        note='1/7/98THERM')

species(name='CO',
        atoms='C:1 O:1',
        thermo=(NASA([300.00, 1429.00],
                     [ 3.19036352E+00,  8.94419972E-04, -3.24927563E-08,
                      -1.04599967E-10,  2.41965693E-14, -1.42869054E+04,
                       5.33277914E+00]),
                NASA([1429.00, 5000.00],
                     [ 3.11216890E+00,  1.15948283E-03, -3.38480362E-07,
                       4.41403098E-11, -2.12862228E-15, -1.42718539E+04,
                       5.71725177E+00])),
        note='29/11/04')

species(name='CH3CO3H',
        atoms='C:2 H:4 O:3',
        thermo=(NASA([300.00, 1391.00],
                     [ 2.24135876E+00,  3.37963514E-02, -2.53887482E-05,
                       9.67583587E-09, -1.49266157E-12, -4.24677831E+04,
                       1.70668133E+01]),
                NASA([1391.00, 5000.00],
                     [ 1.25060485E+01,  9.47789695E-03, -3.30402246E-06,
                       5.19630793E-10, -3.04233568E-14, -4.59856703E+04,
                      -3.79195947E+01])),
        note='6/26/95THERM')

species(name='CH3CHCO',
        atoms='C:3 H:4 O:1',
        thermo=(NASA([300.00, 1400.00],
                     [ 1.48380119E+00,  3.22203013E-02, -2.70250033E-05,
                       1.20499164E-08, -2.18365931E-12, -1.15276540E+04,
                       1.71552068E+01]),
                NASA([1400.00, 5000.00],
                     [ 1.00219123E+01,  9.56966300E-03, -3.26221644E-06,
                       5.05231706E-10, -2.92593257E-14, -1.42482738E+04,
                      -2.77829973E+01])),
        note='03/03/95THERM')

species(name='CO2',
        atoms='C:1 O:2',
        thermo=(NASA([300.00, 1380.00],
                     [ 2.57930490E+00,  8.24684987E-03, -6.42716047E-06,
                       2.54637024E-09, -4.12030443E-13, -4.84162830E+04,
                       8.81141041E+00]),
                NASA([1380.00, 5000.00],
                     [ 5.18953018E+00,  2.06006476E-03, -7.33575324E-07,
                       1.17004374E-10, -6.91729215E-15, -4.93178953E+04,
                      -5.18289303E+00])),
        note='29/11/04')

species(name='CH3CO3',
        atoms='C:2 H:3 O:3',
        thermo=(NASA([300.00, 1391.00],
                     [ 3.60373432E+00,  2.70080341E-02, -2.08293438E-05,
                       8.50541104E-09, -1.43846110E-12, -2.34205171E+04,
                       1.12014914E+01]),
                NASA([1391.00, 5000.00],
                     [ 1.12522498E+01,  8.33652672E-03, -2.89014530E-06,
                       4.52781734E-10, -2.64354456E-14, -2.60238584E+04,
                      -2.96370457E+01])),
        note='4/3/0THERM')

species(name='C3H8',
        atoms='C:3 H:8',
        thermo=(NASA([300.00, 1387.00],
                     [-3.08230087E-01,  3.65331801E-02, -1.97610926E-05,
                       5.15283344E-09, -5.06336649E-13, -1.39792198E+04,
                       2.40478733E+01]),
                NASA([1387.00, 5000.00],
                     [ 9.31450083E+00,  1.73577154E-02, -5.94222386E-06,
                       9.22939762E-10, -5.35576604E-14, -1.77234234E+04,
                      -2.89241517E+01])),
        note='8/4/4THERM')

species(name='AC3H5OOH',
        atoms='C:3 H:6 O:2',
        thermo=(NASA([300.00, 1394.00],
                     [ 2.43934647E+00,  4.02070638E-02, -2.95322679E-05,
                       1.14715600E-08, -1.85170511E-12, -9.43679906E+03,
                       1.70549969E+01]),
                NASA([1394.00, 5000.00],
                     [ 1.36837693E+01,  1.33968049E-02, -4.61533631E-06,
                       7.19988958E-10, -4.19109988E-14, -1.33165248E+04,
                      -4.31904193E+01])),
        note='7/20/98THERM')

species(name='CH2O',
        atoms='C:1 H:2 O:1',
        thermo=(NASA([300.00, 1486.00],
                     [ 3.00754197E+00,  3.04729496E-03,  5.25109246E-06,
                      -5.12019281E-09,  1.27133795E-12, -1.41188397E+04,
                       8.10120233E+00]),
                NASA([1486.00, 5000.00],
                     [ 4.02068394E+00,  5.09903417E-03, -1.76430480E-06,
                       2.76025879E-10, -1.60998042E-14, -1.49287258E+04,
                       1.06525547E+00])),
        note='6/29/04RUSCI')

species(name='CH3CO2',
        atoms='C:2 H:3 O:2',
        thermo=(NASA([300.00, 1395.00],
                     [ 1.37440768E+00,  2.49115604E-02, -1.74308894E-05,
                       6.24799508E-09, -9.09516835E-13, -2.72330150E+04,
                       1.81405454E+01]),
                NASA([1395.00, 5000.00],
                     [ 8.54059736E+00,  8.32951214E-03, -2.84722010E-06,
                       4.41927196E-10, -2.56373394E-14, -2.97290678E+04,
                      -2.03883545E+01])),
        note='2/14/95THERM')

species(name='IC3H7',
        atoms='C:3 H:7',
        thermo=(NASA([300.00, 1373.00],
                     [ 1.63417589E+00,  2.40171372E-02, -4.72808067E-06,
                      -3.24354603E-09,  1.23539044E-12,  9.20752889E+03,
                       1.83848082E+01]),
                NASA([1373.00, 5000.00],
                     [ 8.14705217E+00,  1.58727106E-02, -5.44611541E-06,
                       8.47207689E-10, -4.92178752E-14,  6.18073367E+03,
                      -1.91980850E+01])),
        note='8/4/4THERM')

species(name='C2H3OOH',
        atoms='C:2 H:4 O:2',
        thermo=(NASA([300.00, 1397.00],
                     [ 1.35644398E+00,  3.37002447E-02, -2.75988500E-05,
                       1.14222854E-08, -1.89488886E-12, -5.49996692E+03,
                       1.98354466E+01]),
                NASA([1397.00, 5000.00],
                     [ 1.15749951E+01,  8.09909174E-03, -2.81808668E-06,
                       4.42697954E-10, -2.58998042E-14, -8.84852664E+03,
                      -3.43859117E+01])),
        note='4/18/8THERM')

species(name='HCO',
        atoms='H:1 C:1 O:1',
        thermo=(NASA([300.00, 1690.00],
                     [ 3.81049965E+00,  8.13269825E-04,  3.13164701E-06,
                      -2.39478268E-09,  5.06894554E-13,  4.03859901E+03,
                       4.94843165E+00]),
                NASA([1690.00, 5000.00],
                     [ 3.44148164E+00,  3.52157719E-03, -1.24136118E-06,
                       1.97328644E-10, -1.16538616E-14,  3.97409684E+03,
                       6.24593456E+00])),
        note='29/11/04')

species(name='C2H5OH',
        atoms='C:2 H:6 O:1',
        thermo=(NASA([300.00, 1395.00],
                     [ 1.79106094E-01,  3.09060081E-02, -1.93596697E-05,
                       6.31830859E-09, -8.53166875E-13, -2.95670605E+04,
                       2.44715919E+01]),