"""
Autoignition measurements and a validated kinetic model for the biodiesel surrogate, methyl butanoate.
S. Dooley, H.J. Curran and J. M. Simmie, Combust. Flame 153 (2008) 232.
AUTOIGNITION MEASUREMENTS AND A VALIDATED KINETIC MODEL FOR THE BIODIESEL SURROGATE, METHYL BUTANOATE.
S. DOOLEY, H.J. CURRAN AND J. M. SIMMIE, COMBUST. FLAME 153 (2008) 232.
"""

units(length='cm', time='s', quantity='mol', act_energy='cal/mol')

ideal_gas(name='gas',
          elements="C H N O Ar",
          species="""H              H2             CH3OCH2O2H
                     C4H8OH-1       IC3H5CHO       O
                     CH3OCH2O       C4H8OH-2       IC3H5CO
                     O2             O2CH2OCH2O2H   C4H8OH-1O2
                     TC3H6OCHO      OH             HO2CH2OCHO
                     C4H8OH-2O2     IC3H6CO        H2O
                     OCH2OCHO       C4H8OOH1-1     IC4H7OOH
                     N2             HOCH2OCO       C4H8OOH1-2
                     TC3H6OHCHO     HO2            CH3OCHO
                     C4H8OOH1-3     TC3H6OH        H2O2
                     CH3OCO         C4H8OOH1-4     IC3H5OH
                     AR             CH2OCHO        C4H8OOH2-1
                     TC3H6O2CHO     CO             C4H8OOH2-2
                     TC3H6O2HCO     CO2            C3H8
                     C4H8OOH2-3     IC3H5O2HCHO    CH2O
                     IC3H7          C4H8OOH2-4     CH2CCH2OH
                     HCO            NC3H7          C4H8OOH1-2O2
                     TC4H8CHO       HO2CHO         C3H6
                     C4H8OOH1-3O2   O2C4H8CHO      O2CHO
                     C3H5-A         C4H8OOH1-4O2   O2HC4H8CO
                     HOCHO          C3H5-S         C4H8OOH2-1O2
                     C3H5OH         OCHO           C3H5-T
                     C4H8OOH2-3O2   MB             HOCH2O2H
                     C3H4-P         C4H8OOH2-4O2   MB2D
                     HOCH2O2        C3H4-A         NC4KET12
                     MB2J           OCH2O2H        C3H3
                     NC4KET13       MB2O           HOCH2O
                     C3H2           NC4KET14       MB2OH3J
                     CH3OH          C3H5O          NC4KET21
                     MB2OH3OO       CH2OH          C3H6OOH-2,1
                     NC4KET23       MB3D           CH3O
                     C3H6OOH-3,1    NC4KET24       MB3J
                     CH3O2H         C3H6OOH-1,2    C2H5COCH3
                     MB3O           CH3O2          C3H6OOH1-2O2
                     C2H5COCH2      MB3OH4J        CH4
                     C3H6OOH1-3O2   CH2CH2COCH3    MB3OH4OO
                     CH3            C3H6OOH2-1O2   CH3CHCOCH3
                     MB4*O          CH2            C3H6OOH2-2
                     C2H3COCH3      MB4J           CH2(S)
                     NC3H7O2H       CH3CHOOCOCH3   MB4O
                     C              IC3H7O2H       CH2CHOOHCOCH3
                     MBM*O          CH             NC3H7O2
                     NC3H7CHO       MBMJ           C2H6
                     IC3H7O2        NC3H7CO        MBMJ*O
                     C2H5           NC3H7O         C3H6CHO-1
                     MBMO           C2H4           IC3H7O
                     C3H6CHO-2      ME2*O          C2H3
                     C3H6O1-2       C3H6CHO-3      ME2J
                     C2H2           C3H6O1-3       C2H5CHCO
                     MP2D           C2H            C3KET12
                     SC3H5CHO       MP2D3J         CH3CHO
                     C3KET13        SC3H5CO        MP2OH3J
                     CH3CO          C3KET21        CH2CH2CHO
                     MP2OH3OO       CH2CHO         C3H51-2,3OOH
                     IC4H10         MP3*O          CH2CO
                     C3H52-1,3OOH   IC4H9          MP3J
                     HCCO           C3H6OH         TC4H9
                     CH2CHCHCO      HCCOH          HOC3H6O2
                     IC4H8          CHOOCO         CH3CO3H
                     CH3CHCO        IC4H7          BAOJ
                     CH3CO3         AC3H5OOH       TC4H9O2
                     C5H7O2         CH3CO2         C2H3OOH
                     IC4H9O2        MP3J*O         C2H5OH
                     C4H10          TC4H8O2H-I     CJHCHCHCO
                     C2H5O          C4H8-1         IC4H8O2H-I
                     CH3CHCHO       PC2H4OH        C4H8-2
                     IC4H8O2H-T     ME             SC2H4OH
                     PC4H9          IC4H8O         BA4J
                     O2C2H4OH       SC4H9          CC4H8O
                     CH2COOH        C2H5O2H        C4H71-1
                     IC4H9O         MEMJ           C2H5O2
                     C4H71-2        TC4H9O         C2H3CO2
                     C2H4O2H        C4H71-3        IC4H9O2H
                     MP2DMJ         C2H4O1-2       C4H71-4
                     TC4H9O2H       MP2D2J         C2H3O1-2
                     C4H72-1        IC4H7O         MM1O
                     CH3COCH3       C4H72-2        IC4H8OH
                     MMMO           CH3COCH2       C4H6
                     IO2C4H8OH      CH3CHOCHO      CH3COCH2O2
                     PC4H9O2H       IC3H7CHO       ME2J*O
                     CH3COCH2O2H    SC4H9O2H       TC3H6CHO
                     MB4J*O         CH3COCH2O      PC4H9O2
                     IC3H7CO        MB4OO          C2H3CHO
                     SC4H9O2        IC3H6CHO       MBMOO
                     C2H3CO         PC4H9O         TC4H8OOH-IO2
                     MB3OO          C2H5CHO        SC4H9O
                     IC4H8OOH-IO2   MB2OO          C2H5CO
                     C4H7O          IC4H8OOH-TO2   CH3OCH3
                     C4H8O1-2       IC4KETII       CH3OCH2
                     C4H8O1-3       IC4KETIT       CH3OCH2O2
                     C4H8O1-4       IC4H7OH        CH2OCH2O2H
                     C4H8O2-3       IC4H6OH""",
          reactions='all',
          transport='Mix',
          initial_state=state(temperature=300.0, pressure=OneAtm))

#-------------------------------------------------------------------------------
# Species data
#-------------------------------------------------------------------------------

species(name='H',
        atoms='H:1',
        thermo=(NASA([300.00, 1000.00],
                     [ 2.50000000E+00,  0.00000000E+00,  0.00000000E+00,
                       0.00000000E+00,  0.00000000E+00,  2.54716300E+04,
                      -4.60117600E-01]),
                NASA([1000.00, 5000.00],
                     [ 2.50000000E+00,  0.00000000E+00,  0.00000000E+00,
                       0.00000000E+00,  0.00000000E+00,  2.54716300E+04,
                      -4.60117600E-01])),
        transport=gas_transport(geom='atom',
                                diam=2.05,
                                well_depth=145.0),
        note='120186')

species(name='H2',
        atoms='H:2',
        thermo=(NASA([300.00, 1000.00],
                     [ 3.29812400E+00,  8.24944200E-04, -8.14301500E-07,
                      -9.47543400E-11,  4.13487200E-13, -1.01252100E+03,
                      -3.29409400E+00]),
                NASA([1000.00, 5000.00],
                     [ 2.99142300E+00,  7.00064400E-04, -5.63382900E-08,
                      -9.23157800E-12,  1.58275200E-15, -8.35034000E+02,
                      -1.35511000E+00])),
        transport=gas_transport(geom='linear',
                                diam=2.92,
                                well_depth=38.0,
                                polar=0.79,
                                rot_relax=280.0),
        note='121286')

species(name='CH3OCH2O2H',
        atoms='C:2 H:6 O:3',
        thermo=(NASA([300.00, 1392.00],
                     [ 1.19855761E+00,  4.59060764E-02, -3.66252420E-05,
                       1.49318970E-08, -2.46057445E-12, -3.65363161E+04,
                       2.31339904E+01]),
                NASA([1392.00, 5000.00],
                     [ 1.49370964E+01,  1.19465829E-02, -4.12746359E-06,
                       6.45422590E-10, -3.76427939E-14, -4.11001068E+04,
                      -4.99552737E+01])),
        transport=gas_transport(geom='nonlinear',
                                diam=4.037,
                                well_depth=395.0,
                                dipole=1.3,
                                rot_relax=1.0),
        note='7/20/98THERM')

species(name='C4H8OH-1',
        atoms='C:4 H:9 O:1',
        thermo=(NASA([300.00, 2017.00],
                     [ 8.93729480E-01,  4.56458552E-02, -2.50918881E-05,
                       6.24130181E-09, -4.99533512E-13, -1.20051696E+04,
                       2.78453352E+01]),
                NASA([2017.00, 5000.00],
                     [ 1.22411698E+01,  2.14192799E-02, -7.36540176E-06,
                       1.15346865E-09, -6.74843941E-14, -1.59314041E+04,
                      -3.35659613E+01])),
        transport=gas_transport(geom='nonlinear',
                                diam=5.2,
                                well_depth=496.0,
                                rot_relax=1.0),
        note='2/14/95THERM')

species(name='IC3H5CHO',
        atoms='C:4 H:6 O:1',
        thermo=(NASA([300.00, 1396.00],
                     [ 6.27183793E-01,  4.66780254E-02, -3.74430631E-05,
                       1.58330542E-08, -2.73952155E-12, -1.57203117E+04,
                       2.16034294E+01]),
                NASA([1396.00, 5000.00],
                     [ 1.36203958E+01,  1.37917192E-02, -4.73370118E-06,
                       7.36655226E-10, -4.20097974E-14, -2.00025274E+04,
                      -4.73184531E+01])),
        transport=gas_transport(geom='nonlinear',
                                diam=5.352,
                                well_depth=436.4,
                                rot_relax=1.0),
        note='7/19/95THERM')

species(name='O',
        atoms='O:1',
        thermo=(NASA([300.00, 1000.00],
                     [ 2.94642900E+00, -1.63816600E-03,  2.42103200E-06,
                      -1.60284300E-09,  3.89069600E-13,  2.91476400E+04,
                       2.96399500E+00]),
                NASA([1000.00, 5000.00],
                     [ 2.54206000E+00, -2.75506200E-05, -3.10280300E-09,
                       4.55106700E-12, -4.36805200E-16,  2.92308000E+04,
                       4.92030800E+00])),
        transport=gas_transport(geom='atom',
                                diam=2.75,
                                well_depth=80.0),
        note='120186')

species(name='CH3OCH2O',
        atoms='C:2 H:5 O:2',
        thermo=(NASA([300.00, 2012.00],
                     [ 3.25889339E+00,  2.22146359E-02, -7.78556340E-06,
                      -2.41484158E-10,  4.51914496E-13, -1.92377212E+04,
                       1.23680069E+01]),
                NASA([2012.00, 5000.00],
                     [ 8.60261845E+00,  1.35772195E-02, -4.84661602E-06,
                       7.77766193E-10, -4.62633624E-14, -2.13762444E+04,
                      -1.75775023E+01])),
        transport=gas_transport(geom='nonlinear',
                                diam=4.037,
                                well_depth=395.0,
                                dipole=1.3,
                                rot_relax=1.0),
        note='2/9/96THERM')

species(name='C4H8OH-2',
        atoms='C:4 H:9 O:1',
        thermo=(NASA([300.00, 1390.00],
                     [ 7.34225848E-01,  4.82233506E-02, -2.92566110E-05,
                       8.78396067E-09, -1.01812519E-12, -1.42394556E+04,
                       2.71427693E+01]),
                NASA([1390.00, 5000.00],
                     [ 1.40098964E+01,  1.96303998E-02, -6.61483807E-06,
                       1.01686276E-09, -5.85950747E-14, -1.90865900E+04,
                      -4.50052542E+01])),
        transport=gas_transport(geom='nonlinear',
                                diam=5.2,
                                well_depth=496.0,
                                rot_relax=1.0),
        note='2/14/95THERM')

species(name='IC3H5CO',
        atoms='C:4 H:5 O:1',
        thermo=(NASA([300.00, 1397.00],
                     [ 1.85097069E+00,  4.18855846E-02, -3.62553731E-05,
                       1.65690659E-08, -3.05850846E-12,  1.70381441E+02,
                       1.53014433E+01]),
                NASA([1397.00, 5000.00],
                     [ 1.30667437E+01,  1.16704244E-02, -3.99106523E-06,
                       6.19498148E-10, -3.59348249E-14, -3.36519344E+03,
                      -4.35803090E+01])),
        transport=gas_transport(geom='nonlinear',
                                diam=5.352,
                                well_depth=436.4,
                                rot_relax=1.0),
        note='4/3/0THERM')

species(name='O2',
        atoms='O:2',
        thermo=(NASA([300.00, 1000.00],
                     [ 3.21293600E+00,  1.12748600E-03, -5.75615000E-07,
                       1.31387700E-09, -8.76855400E-13, -1.00524900E+03,
                       6.03473800E+00]),
                NASA([1000.00, 5000.00],
                     [ 3.69757800E+00,  6.13519700E-04, -1.25884200E-07,
                       1.77528100E-11, -1.13643500E-15, -1.23393000E+03,
                       3.18916600E+00])),
        transport=gas_transport(geom='linear',
                                diam=3.458,
                                well_depth=107.4,
                                polar=1.6,
                                rot_relax=3.8),
        note='121386')

species(name='O2CH2OCH2O2H',
        atoms='C:2 H:5 O:5',
        thermo=(NASA([300.00, 1402.00],
                     [ 1.99640551E+00,  5.83226232E-02, -5.53259778E-05,
                       2.59810540E-08, -4.77141005E-12, -3.27628742E+04,
                       2.44215005E+01]),
                NASA([1402.00, 5000.00],
                     [ 1.92038046E+01,  1.04394841E-02, -3.60582939E-06,
                       5.63792843E-10, -3.28807214E-14, -3.79207055E+04,
                      -6.51847273E+01])),
        transport=gas_transport(geom='nonlinear',
                                diam=4.037,
                                well_depth=395.0,
                                dipole=1.3,
                                rot_relax=1.0),
        note='7/20/98TRM')

species(name='C4H8OH-1O2',
        atoms='C:4 H:9 O:3',
        thermo=(NASA([300.00, 1396.00],
                     [ 2.88497398E+00,  5.63287929E-02, -3.98403503E-05,
                       1.53891643E-08, -2.51940787E-12, -3.05246721E+04,
                       2.09293355E+01]),
                NASA([1396.00, 5000.00],
                     [ 1.74383247E+01,  2.16778876E-02, -7.37772628E-06,
                       1.14128811E-09, -6.60391451E-14, -3.55892620E+04,
                      -5.71247140E+01])),
        transport=gas_transport(geom='nonlinear',
                                diam=5.356,
                                well_depth=502.2,
                                dipole=1.8,
                                rot_relax=1.0),
        note='6/26/95THERM')

species(name='TC3H6OCHO',
        atoms='C:4 H:7 O:2',
        thermo=(NASA([300.00, 1394.00],
                     [ 3.70830259E-01,  5.38475661E-02, -3.82477565E-05,
                       1.32882237E-08, -1.79228730E-12, -2.18391262E+04,
                       2.58142112E+01]),
                NASA([1394.00, 5000.00],
                     [ 1.70371287E+01,  1.54400645E-02, -5.28332886E-06,
                       8.21085347E-10, -4.76898429E-14, -2.75871941E+04,
                      -6.37271230E+01])),
        transport=gas_transport(geom='nonlinear',
                                diam=5.352,
                                well_depth=436.4,
                                rot_relax=1.0),
        note='8/25/95THERM')

species(name='OH',
        atoms='H:1 O:1',
        thermo=(NASA([300.00, 1710.00],
                     [ 3.41896226E+00,  3.19255801E-04, -3.08292717E-07,
                       3.64407494E-10, -1.00195479E-13,  3.45264448E+03,
                       2.54433372E+00]),
                NASA([1710.00, 5000.00],
                     [ 2.85376040E+00,  1.02994334E-03, -2.32666477E-07,
                       1.93750704E-11, -3.15759847E-16,  3.69949720E+03,
                       5.78756825E+00])),
        transport=gas_transport(geom='linear',
                                diam=2.75,
                                well_depth=80.0),
        note='7/13/0RUCIC')

species(name='HO2CH2OCHO',
        atoms='C:2 H:4 O:4',
        thermo=(NASA([300.00, 1387.00],
                     [ 3.47935703E+00,  4.02952392E-02, -3.30109296E-05,
                       1.34360117E-08, -2.18601580E-12, -5.80629934E+04,
                       1.52521392E+01]),
                NASA([1387.00, 5000.00],
                     [ 1.64584298E+01,  8.52683511E-03, -3.04113500E-06,
                       4.85596908E-10, -2.87316334E-14, -6.23959608E+04,
                      -5.38924139E+01])),
        transport=gas_transport(geom='nonlinear',
                                diam=4.037,
                                well_depth=395.0,
                                dipole=1.3,
                                rot_relax=1.0),
        note='8/31/99THERM')

species(name='C4H8OH-2O2',
        atoms='C:4 H:9 O:3',
        thermo=(NASA([300.00, 1399.00],
                     [ 2.10003504E+00,  6.17528218E-02, -4.77238541E-05,
                       1.99145784E-08, -3.44416275E-12, -3.26698755E+04,
                       2.30901271E+01]),
                NASA([1399.00, 5000.00],
                     [ 1.82942871E+01,  2.09395389E-02, -7.12096934E-06,
                       1.10103094E-09, -6.36889768E-14, -3.80505855E+04,
                      -6.29154326E+01])),
        transport=gas_transport(geom='nonlinear',
                                diam=5.356,
                                well_depth=502.2,
                                dipole=1.8,
                                rot_relax=1.0),
        note='6/26/95THERM')

species(name='IC3H6CO',
        atoms='C:4 H:6 O:1',
        thermo=(NASA([300.00, 1397.00],
                     [ 2.28039055E+00,  4.17016989E-02, -3.25089661E-05,
                       1.37243419E-08, -2.40573132E-12, -1.63939712E+04,
                       1.38187714E+01]),
                NASA([1397.00, 5000.00],
                     [ 1.32548232E+01,  1.40142787E-02, -4.78910215E-06,
                       7.42924342E-10, -4.30737566E-14, -2.00529779E+04,
                      -4.44810221E+01])),
        transport=gas_transport(geom='nonlinear',
                                diam=5.352,
                                well_depth=436.4,
                                rot_relax=1.0),
        note='03/03/95THERM')

species(name='H2O',
        atoms='H:2 O:1',
        thermo=(NASA([300.00, 1000.00],
                     [ 3.38684200E+00,  3.47498200E-03, -6.35469600E-06,
                       6.96858100E-09, -2.50658800E-12, -3.02081100E+04,
                       2.59023300E+00]),
                NASA([1000.00, 5000.00],
                     [ 2.67214600E+00,  3.05629300E-03, -8.73026000E-07,
                       1.20099600E-10, -6.39161800E-15, -2.98992100E+04,
                       6.86281700E+00])),
        transport=gas_transport(geom='nonlinear',
                                diam=2.605,
                                well_depth=572.4,
                                dipole=1.844,
                                rot_relax=4.0),
        note='20387')

species(name='OCH2OCHO',
        atoms='C:2 H:3 O:3',
        thermo=(NASA([300.00, 1475.00],
                     [ 5.19690837E+00,  1.58839723E-02,  3.53540547E-07,
                      -6.10456923E-09,  1.94661801E-12, -4.02242792E+04,
                       6.11645828E+00]),
                NASA([1475.00, 5000.00],
                     [ 1.20233916E+01,  8.11262659E-03, -2.91356462E-06,
                       4.67340384E-10, -2.77375525E-14, -4.33647231E+04,
                      -3.33691809E+01])),
        transport=gas_transport(geom='nonlinear',
                                diam=4.037,
                                well_depth=395.0,
                                dipole=1.3,
                                rot_relax=1.0),
        note='4/9/98THERM')

species(name='C4H8OOH1-1',
        atoms='C:4 H:9 O:2',
        thermo=(NASA([300.00, 1379.00],
                     [ 4.36087539E+00,  4.46153162E-02, -2.14784588E-05,
                       3.14619957E-09,  3.03152649E-13, -6.89950326E+03,
                       1.24757248E+01]),
                NASA([1379.00, 5000.00],
                     [ 1.80477436E+01,  1.92137176E-02, -6.66503008E-06,
                       1.04468117E-09, -6.10170737E-14, -1.23069570E+04,
                      -6.33580990E+01])),
        transport=gas_transport(geom='nonlinear',
                                diam=4.72,
                                well_depth=357.1,
                                rot_relax=1.0),
        note='3/27/97THERM')

species(name='IC4H7OOH',
        atoms='C:4 H:8 O:2',
        thermo=(NASA([300.00, 1392.00],
                     [ 2.99117402E+00,  5.03349278E-02, -3.56280061E-05,
                       1.33952154E-08, -2.11053409E-12, -1.51095046E+04,
                       1.54537413E+01]),
                NASA([1392.00, 5000.00],
                     [ 1.69234564E+01,  1.78396769E-02, -6.14273279E-06,
                       9.57895028E-10, -5.57438304E-14, -2.00040686E+04,
                      -5.94746070E+01])),
        transport=gas_transport(geom='nonlinear',
                                diam=5.352,
                                well_depth=436.4,
                                rot_relax=1.0),
        note='7/19/95THERM')

species(name='N2',
        atoms='N:2',
        thermo=(NASA([300.00, 1000.00],
                     [ 3.29867700E+00,  1.40824000E-03, -3.96322200E-06,
                       5.64151500E-09, -2.44485500E-12, -1.02090000E+03,
                       3.95037200E+00]),
                NASA([1000.00, 5000.00],
                     [ 2.92664000E+00,  1.48797700E-03, -5.68476100E-07,
                       1.00970400E-10, -6.75335100E-15, -9.22797700E+02,
                       5.98052800E+00])),
        transport=gas_transport(geom='linear',
                                diam=3.621,
                                well_depth=97.53,
                                polar=1.76,
                                rot_relax=4.0),
        note='121286')

species(name='HOCH2OCO',
        atoms='C:2 H:3 O:3',
        thermo=(NASA([300.00, 1603.00],
                     [ 6.08180801E+00,  1.28768359E-02,  2.04419418E-06,
                      -6.10154921E-09,  1.79820559E-12, -4.39526183E+04,
                       2.54054449E+00]),
                NASA([1603.00, 5000.00],
                     [ 1.13737391E+01,  8.17663898E-03, -2.92034021E-06,
                       4.66695616E-10, -2.76276823E-14, -4.65575743E+04,
                      -2.86035265E+01])),
        transport=gas_transport(geom='nonlinear',
                                diam=4.037,
                                well_depth=395.0,
                                dipole=1.3,
                                rot_relax=1.0),
        note='8/31/99THERM')

species(name='C4H8OOH1-2',
        atoms='C:4 H:9 O:2',
        thermo=(NASA([300.00, 1393.00],
                     [ 1.51698234E+00,  5.44584331E-02, -3.84524319E-05,
                       1.48145523E-08, -2.42809434E-12, -3.49728423E+03,
                       2.64916926E+01]),
                NASA([1393.00, 5000.00],
                     [ 1.58327906E+01,  2.07220436E-02, -7.09869028E-06,
                       1.10302045E-09, -6.40251984E-14, -8.53034314E+03,
                      -5.04399828E+01])),
        transport=gas_transport(geom='nonlinear',
                                diam=5.2,
                                well_depth=496.0,
                                rot_relax=1.0),
        note='7/19/0THERM')

species(name='TC3H6OHCHO',
        atoms='C:4 H:8 O:2',
        thermo=(NASA([300.00, 1396.00],
                     [ 2.10033500E-01,  5.63086284E-02, -3.95158669E-05,
                       1.37780428E-08, -1.89068805E-12, -4.80402638E+04,
                       2.67836070E+01]),
                NASA([1396.00, 5000.00],
                     [ 1.70788996E+01,  1.74005554E-02, -5.93008112E-06,
                       9.18860909E-10, -5.32512140E-14, -5.38730427E+04,
                      -6.38638754E+01])),
        transport=gas_transport(geom='nonlinear',
                                diam=5.352,
                                well_depth=436.4,
                                rot_relax=1.0),
        note='8/1/95THERM')

species(name='HO2',
        atoms='H:1 O:2',
        thermo=(NASA([200.00, 1000.00],
                     [ 4.30179801E+00, -4.74912051E-03,  2.11582891E-05,
                      -2.42763894E-08,  9.29225124E-12,  2.94808040E+02,
                       3.71666245E+00]),
                NASA([1000.00, 3500.00],
                     [ 4.01721090E+00,  2.23982013E-03, -6.33658150E-07,
                       1.14246370E-10, -1.07908535E-14,  1.11856713E+02,
                       3.78510215E+00])),
        transport=gas_transport(geom='nonlinear',
                                diam=3.458,
                                well_depth=107.4,
                                rot_relax=1.0),
        note='L5/89')

species(name='CH3OCHO',
        atoms='C:2 H:4 O:2',
        thermo=(NASA([300.00, 1686.00],
                     [ 3.08839783E+00,  2.03760048E-02, -6.84777040E-06,
                      -7.28186203E-10,  5.62130216E-13, -4.41855167E+04,
                       1.25364719E+01]),
                NASA([1686.00, 5000.00],
                     [ 8.69123518E+00,  1.15503122E-02, -4.27782486E-06,
                       7.02533059E-10, -4.24333552E-14, -4.64364769E+04,
                      -1.89301478E+01])),
        transport=gas_transport(geom='nonlinear',
                                diam=4.037,
                                well_depth=395.0,
                                dipole=1.3,
                                rot_relax=1.0),
        note='8/31/99THERM')

species(name='C4H8OOH1-3',
        atoms='C:4 H:9 O:2',
        thermo=(NASA([300.00, 1377.00],
                     [ 1.94106276E+00,  5.18789351E-02, -3.10411683E-05,
                       8.63568881E-09, -8.42841994E-13, -4.34315962E+03,
                       2.40230471E+01]),
                NASA([1377.00, 5000.00],
                     [ 1.76442170E+01,  1.91706536E-02, -6.57168641E-06,
                       1.02246571E-09, -5.94304735E-14, -1.01859280E+04,
                      -6.17115813E+01])),
        transport=gas_transport(geom='nonlinear',
                                diam=5.2,
                                well_depth=496.0,
                                rot_relax=1.0),
        note='7/19/0THERM')

species(name='TC3H6OH',
        atoms='C:3 H:7 O:1',
        thermo=(NASA([300.00, 1389.00],
                     [ 2.31803956E+00,  3.17304980E-02, -1.69638706E-05,
                       4.59998773E-09, -5.18285520E-13, -1.39382712E+04,
                       1.71105868E+01]),
                NASA([1389.00, 5000.00],
                     [ 1.01256920E+01,  1.61868427E-02, -5.52405957E-06,
                       8.56051932E-10, -4.95935542E-14, -1.70083112E+04,
                      -2.59254163E+01])),
        transport=gas_transport(geom='nonlinear',
                                diam=5.036,
                                well_depth=459.5,
                                dipole=1.7,
                                rot_relax=1.0),
        note='8/1/95THERM')

species(name='H2O2',
        atoms='H:2 O:2',
        thermo=(NASA([300.00, 1000.00],
                     [ 3.38875400E+00,  6.56922600E-03, -1.48501300E-07,
                      -4.62580600E-09,  2.47151500E-12, -1.76631500E+04,
                       6.78536300E+00]),
                NASA([1000.00, 5000.00],
                     [ 4.57316700E+00,  4.33613600E-03, -1.47468900E-06,
                       2.34890400E-10, -1.43165400E-14, -1.80069600E+04,
                       5.01137000E-01])),
        transport=gas_transport(geom='nonlinear',
                                diam=3.458,
                                well_depth=107.4,
                                rot_relax=3.8),
        note='120186')

species(name='CH3OCO',
        atoms='C:2 H:3 O:2',
        thermo=(NASA([300.00, 1601.00],
                     [ 4.16215406E+00,  1.38037511E-02, -3.08486109E-07,
                      -4.56430814E-09,  1.46909632E-12, -2.11640115E+04,
                       8.68327214E+00]),
                NASA([1601.00, 5000.00],
                     [ 9.73659803E+00,  7.42432713E-03, -2.65641779E-06,
                       4.25031143E-10, -2.51824924E-14, -2.37525535E+04,
                      -2.35950854E+01])),
        transport=gas_transport(geom='nonlinear',
                                diam=4.037,
                                well_depth=395.0,
                                dipole=1.3,
                                rot_relax=1.0),
        note='8/31/99THERM')

species(name='C4H8OOH1-4',
        atoms='C:4 H:9 O:2',
        thermo=(NASA([300.00, 1386.00],
                     [ 1.45017084E+00,  5.72418991E-02, -4.06431218E-05,
                       1.52821793E-08, -2.42123218E-12, -3.02905522E+03,
                       2.50737890E+01]),
                NASA([1386.00, 5000.00],
                     [ 1.78623700E+01,  1.95212501E-02, -6.80351173E-06,
                       1.06960529E-09, -6.26000540E-14, -8.87923008E+03,
                      -6.34393359E+01])),
        transport=gas_transport(geom='nonlinear',
                                diam=5.2,
                                well_depth=496.0,
                                rot_relax=1.0),
        note='7/19/0THERM')

species(name='IC3H5OH',